
#======================================================================
# CRYSTAL DATA
#----------------------------------------------------------------------
data_VESTA_phase_1

_chemical_name_common                  'POSCAR file written by OVITO Basic 3.8'
_cell_length_a                         23.359400
_cell_length_b                         23.359400
_cell_length_c                         23.359400
_cell_angle_alpha                      90.000000
_cell_angle_beta                       90.000000
_cell_angle_gamma                      90.000000
_cell_volume                           12746.326505
_space_group_name_H-M_alt              'P 1'
_space_group_IT_number                 1

loop_
_space_group_symop_operation_xyz
   'x, y, z'

loop_
   _atom_site_label
   _atom_site_occupancy
   _atom_site_fract_x
   _atom_site_fract_y
   _atom_site_fract_z
   _atom_site_adp_type
   _atom_site_U_iso_or_equiv
   _atom_site_type_symbol
   C1         1.0     0.623860     0.267011     0.093551    Uiso  ? C
   C2         1.0     0.652201     0.215786     0.103278    Uiso  ? C
   C3         1.0     0.642799     0.234567     0.203322    Uiso  ? C
   C4         1.0     0.660642     0.313885     0.292002    Uiso  ? C
   C5         1.0     0.660521     0.213789     0.256612    Uiso  ? C
   C6         1.0     0.626926     0.291512     0.195902    Uiso  ? C
   C7         1.0     0.634935     0.331592     0.239855    Uiso  ? C
   C8         1.0     0.616983     0.306951     0.138770    Uiso  ? C
   C9         1.0     0.873860     0.156449     0.017011    Uiso  ? C
   C10        1.0     0.906449     0.123860     0.232989    Uiso  ? C
   C11        1.0     0.896722     0.152201     0.284214    Uiso  ? C
   C12        1.0     0.877161     0.024765     0.139420    Uiso  ? C
   C13        1.0     0.774765     0.127161     0.110580    Uiso  ? C
   C14        1.0     0.699420     0.168098     0.247334    Uiso  ? C
   C15        1.0     0.752666     0.199420     0.331902    Uiso  ? C
   C16        1.0     0.668098     0.252666     0.300580    Uiso  ? C
   C17        1.0     0.796678     0.142799     0.265433    Uiso  ? C
   C18        1.0     0.707998     0.160642     0.186115    Uiso  ? C
   C19        1.0     0.743388     0.160521     0.286211    Uiso  ? C
   C20        1.0     0.876926     0.054098     0.041512    Uiso  ? C
   C21        1.0     0.804098     0.126926     0.208488    Uiso  ? C
   C22        1.0     0.884935     0.010145     0.081592    Uiso  ? C
   C23        1.0     0.760145     0.134935     0.168408    Uiso  ? C
   C24        1.0     0.667533     0.199898     0.158267    Uiso  ? C
   C25        1.0     0.841733     0.167533     0.300102    Uiso  ? C
   C26        1.0     0.866983     0.111230     0.056951    Uiso  ? C
   C27        1.0     0.861230     0.116983     0.193049    Uiso  ? C
   C28        1.0     0.093551     0.623860     0.267011    Uiso  ? C
   C29        1.0     0.103278     0.652201     0.215786    Uiso  ? C
   C30        1.0     0.203322     0.642799     0.234567    Uiso  ? C
   C31        1.0     0.292002     0.660642     0.313885    Uiso  ? C
   C32        1.0     0.256612     0.660521     0.213789    Uiso  ? C
   C33        1.0     0.195902     0.626926     0.291512    Uiso  ? C
   C34        1.0     0.239855     0.634935     0.331592    Uiso  ? C
   C35        1.0     0.138770     0.616983     0.306951    Uiso  ? C
   C36        1.0     0.656449     0.482989     0.126140    Uiso  ? C
   C37        1.0     0.646722     0.534214     0.097799    Uiso  ? C
   C38        1.0     0.402201     0.353278     0.034214    Uiso  ? C
   C39        1.0     0.524765     0.360580     0.122839    Uiso  ? C
   C40        1.0     0.627161     0.389420     0.225235    Uiso  ? C
   C41        1.0     0.502666     0.581902     0.050580    Uiso  ? C
   C42        1.0     0.449420     0.497334     0.081902    Uiso  ? C
   C43        1.0     0.546678     0.515433     0.107201    Uiso  ? C
   C44        1.0     0.392799     0.453322     0.015433    Uiso  ? C
   C45        1.0     0.457998     0.436115     0.089357    Uiso  ? C
   C46        1.0     0.563885     0.589358     0.042002    Uiso  ? C
   C47        1.0     0.463789     0.589479     0.006612    Uiso  ? C
   C48        1.0     0.493388     0.536211     0.089479    Uiso  ? C
   C49        1.0     0.410521     0.506612     0.036211    Uiso  ? C
   C50        1.0     0.554098     0.458488     0.123074    Uiso  ? C
   C51        1.0     0.510145     0.418408     0.115065    Uiso  ? C
   C52        1.0     0.591733     0.550102     0.082467    Uiso  ? C
   C53        1.0     0.417533     0.408267     0.050102    Uiso  ? C
   C54        1.0     0.611230     0.443049     0.133017    Uiso  ? C
   C55        1.0     0.699898     0.341733     0.332467    Uiso  ? C
   C56        1.0     0.232989     0.906449     0.123860    Uiso  ? C
   C57        1.0     0.017011     0.873860     0.156449    Uiso  ? C
   C58        1.0     0.284214     0.896722     0.152201    Uiso  ? C
   C59        1.0     0.110580     0.774765     0.127161    Uiso  ? C
   C60        1.0     0.139420     0.877161     0.024765    Uiso  ? C
   C61        1.0     0.300580     0.668098     0.252666    Uiso  ? C
   C62        1.0     0.247334     0.699420     0.168098    Uiso  ? C
   C63        1.0     0.331902     0.752666     0.199420    Uiso  ? C
   C64        1.0     0.265433     0.796678     0.142799    Uiso  ? C
   C65        1.0     0.186115     0.707998     0.160642    Uiso  ? C
   C66        1.0     0.286211     0.743388     0.160521    Uiso  ? C
   C67        1.0     0.208488     0.804098     0.126926    Uiso  ? C
   C68        1.0     0.041512     0.876926     0.054098    Uiso  ? C
   C69        1.0     0.168408     0.760145     0.134935    Uiso  ? C
   C70        1.0     0.081592     0.884935     0.010145    Uiso  ? C
   C71        1.0     0.300102     0.841733     0.167533    Uiso  ? C
   C72        1.0     0.158267     0.667533     0.199898    Uiso  ? C
   C73        1.0     0.193049     0.861230     0.116983    Uiso  ? C
   C74        1.0     0.056951     0.866983     0.111230    Uiso  ? C
   C75        1.0     0.372839     0.889420     0.274765    Uiso  ? C
   C76        1.0     0.357201     0.734567     0.296678    Uiso  ? C
   C77        1.0     0.339358     0.813885     0.207998    Uiso  ? C
   C78        1.0     0.339479     0.713789     0.243388    Uiso  ? C
   C79        1.0     0.373074     0.791512     0.304098    Uiso  ? C
   C80        1.0     0.365065     0.831592     0.260145    Uiso  ? C
   C81        1.0     0.965786     0.902201     0.146722    Uiso  ? C
   C82        1.0     0.918098     0.949420     0.002666    Uiso  ? C
   C83        1.0     0.984567     0.892799     0.046678    Uiso  ? C
   C84        1.0     0.910642     0.957998     0.063885    Uiso  ? C
   C85        1.0     0.949898     0.917533     0.091733    Uiso  ? C
   C86        1.0     0.267011     0.093551     0.623860    Uiso  ? C
   C87        1.0     0.215786     0.103278     0.652201    Uiso  ? C
   C88        1.0     0.234567     0.203322     0.642799    Uiso  ? C
   C89        1.0     0.313885     0.292002     0.660642    Uiso  ? C
   C90        1.0     0.213789     0.256612     0.660521    Uiso  ? C
   C91        1.0     0.291512     0.195902     0.626926    Uiso  ? C
   C92        1.0     0.331592     0.239855     0.634935    Uiso  ? C
   C93        1.0     0.306951     0.138770     0.616983    Uiso  ? C
   C94        1.0     0.482989     0.126140     0.656449    Uiso  ? C
   C95        1.0     0.353278     0.034214     0.402201    Uiso  ? C
   C96        1.0     0.534214     0.097799     0.646722    Uiso  ? C
   C97        1.0     0.389420     0.225235     0.627161    Uiso  ? C
   C98        1.0     0.360580     0.122839     0.524765    Uiso  ? C
   C99        1.0     0.581902     0.050580     0.502666    Uiso  ? C
   C100       1.0     0.497334     0.081902     0.449420    Uiso  ? C
   C101       1.0     0.453322     0.015433     0.392799    Uiso  ? C
   C102       1.0     0.515433     0.107201     0.546678    Uiso  ? C
   C103       1.0     0.589358     0.042002     0.563885    Uiso  ? C
   C104       1.0     0.436115     0.089357     0.457998    Uiso  ? C
   C105       1.0     0.536211     0.089479     0.493388    Uiso  ? C
   C106       1.0     0.506612     0.036211     0.410521    Uiso  ? C
   C107       1.0     0.589479     0.006612     0.463789    Uiso  ? C
   C108       1.0     0.458488     0.123074     0.554098    Uiso  ? C
   C109       1.0     0.418408     0.115065     0.510145    Uiso  ? C
   C110       1.0     0.408267     0.050102     0.417533    Uiso  ? C
   C111       1.0     0.550102     0.082467     0.591733    Uiso  ? C
   C112       1.0     0.443049     0.133017     0.611230    Uiso  ? C
   C113       1.0     0.889420     0.274765     0.372839    Uiso  ? C
   C114       1.0     0.734567     0.296678     0.357201    Uiso  ? C
   C115       1.0     0.813885     0.207998     0.339358    Uiso  ? C
   C116       1.0     0.713789     0.243388     0.339479    Uiso  ? C
   C117       1.0     0.791512     0.304098     0.373074    Uiso  ? C
   C118       1.0     0.831592     0.260145     0.365065    Uiso  ? C
   C119       1.0     0.126140     0.656449     0.482989    Uiso  ? C
   C120       1.0     0.097799     0.646722     0.534214    Uiso  ? C
   C121       1.0     0.034214     0.402201     0.353278    Uiso  ? C
   C122       1.0     0.122839     0.524765     0.360580    Uiso  ? C
   C123       1.0     0.225235     0.627161     0.389420    Uiso  ? C
   C124       1.0     0.081902     0.449420     0.497334    Uiso  ? C
   C125       1.0     0.050580     0.502666     0.581902    Uiso  ? C
   C126       1.0     0.107201     0.546678     0.515433    Uiso  ? C
   C127       1.0     0.015433     0.392799     0.453322    Uiso  ? C
   C128       1.0     0.042002     0.563885     0.589358    Uiso  ? C
   C129       1.0     0.089357     0.457998     0.436115    Uiso  ? C
   C130       1.0     0.036211     0.410521     0.506612    Uiso  ? C
   C131       1.0     0.006612     0.463789     0.589479    Uiso  ? C
   C132       1.0     0.089479     0.493388     0.536211    Uiso  ? C
   C133       1.0     0.123074     0.554098     0.458488    Uiso  ? C
   C134       1.0     0.115065     0.510145     0.418408    Uiso  ? C
   C135       1.0     0.082467     0.591733     0.550102    Uiso  ? C
   C136       1.0     0.050102     0.417533     0.408267    Uiso  ? C
   C137       1.0     0.133017     0.611230     0.443049    Uiso  ? C
   C138       1.0     0.767011     0.406449     0.376140    Uiso  ? C
   C139       1.0     0.843551     0.517011     0.626140    Uiso  ? C
   C140       1.0     0.982989     0.373860     0.343551    Uiso  ? C
   C141       1.0     0.715786     0.396722     0.347799    Uiso  ? C
   C142       1.0     0.853278     0.465786     0.597799    Uiso  ? C
   C143       1.0     0.975235     0.639420     0.622839    Uiso  ? C
   C144       1.0     0.860580     0.377161     0.475235    Uiso  ? C
   C145       1.0     0.997334     0.418098     0.550580    Uiso  ? C
   C146       1.0     0.953322     0.484567     0.607201    Uiso  ? C
   C147       1.0     0.936115     0.410642     0.542002    Uiso  ? C
   C148       1.0     0.945902     0.541512     0.623074    Uiso  ? C
   C149       1.0     0.958488     0.376926     0.445902    Uiso  ? C
   C150       1.0     0.989855     0.581592     0.615065    Uiso  ? C
   C151       1.0     0.918408     0.384935     0.489855    Uiso  ? C
   C152       1.0     0.908267     0.449898     0.582467    Uiso  ? C
   C153       1.0     0.806951     0.361230     0.383017    Uiso  ? C
   C154       1.0     0.888770     0.556951     0.633017    Uiso  ? C
   C155       1.0     0.943049     0.366983     0.388770    Uiso  ? C
   C156       1.0     0.332467     0.699898     0.341733    Uiso  ? C
   C157       1.0     0.343551     0.982989     0.373860    Uiso  ? C
   C158       1.0     0.376140     0.767011     0.406449    Uiso  ? C
   C159       1.0     0.626140     0.843551     0.517011    Uiso  ? C
   C160       1.0     0.347799     0.715786     0.396722    Uiso  ? C
   C161       1.0     0.597799     0.853278     0.465786    Uiso  ? C
   C162       1.0     0.475235     0.860580     0.377161    Uiso  ? C
   C163       1.0     0.622839     0.975235     0.639420    Uiso  ? C
   C164       1.0     0.550580     0.997334     0.418098    Uiso  ? C
   C165       1.0     0.607201     0.953322     0.484567    Uiso  ? C
   C166       1.0     0.542002     0.936115     0.410642    Uiso  ? C
   C167       1.0     0.445902     0.958488     0.376926    Uiso  ? C
   C168       1.0     0.623074     0.945902     0.541512    Uiso  ? C
   C169       1.0     0.489855     0.918408     0.384935    Uiso  ? C
   C170       1.0     0.615065     0.989855     0.581592    Uiso  ? C
   C171       1.0     0.582467     0.908267     0.449898    Uiso  ? C
   C172       1.0     0.388770     0.943049     0.366983    Uiso  ? C
   C173       1.0     0.383017     0.806951     0.361230    Uiso  ? C
   C174       1.0     0.633017     0.888770     0.556951    Uiso  ? C
   C175       1.0     0.876140     0.732989     0.593551    Uiso  ? C
   C176       1.0     0.847799     0.784214     0.603278    Uiso  ? C
   C177       1.0     0.725235     0.872839     0.610580    Uiso  ? C
   C178       1.0     0.832467     0.800102     0.658267    Uiso  ? C
   C179       1.0     0.883017     0.693049     0.638770    Uiso  ? C
   C180       1.0     0.156449     0.017011     0.873860    Uiso  ? C
   C181       1.0     0.123860     0.232989     0.906449    Uiso  ? C
   C182       1.0     0.152201     0.284214     0.896722    Uiso  ? C
   C183       1.0     0.024765     0.139420     0.877161    Uiso  ? C
   C184       1.0     0.127161     0.110580     0.774765    Uiso  ? C
   C185       1.0     0.199420     0.331902     0.752666    Uiso  ? C
   C186       1.0     0.252666     0.300580     0.668098    Uiso  ? C
   C187       1.0     0.168098     0.247334     0.699420    Uiso  ? C
   C188       1.0     0.142799     0.265433     0.796678    Uiso  ? C
   C189       1.0     0.160642     0.186115     0.707998    Uiso  ? C
   C190       1.0     0.160521     0.286211     0.743388    Uiso  ? C
   C191       1.0     0.054098     0.041512     0.876926    Uiso  ? C
   C192       1.0     0.126926     0.208488     0.804098    Uiso  ? C
   C193       1.0     0.010145     0.081592     0.884935    Uiso  ? C
   C194       1.0     0.134935     0.168408     0.760145    Uiso  ? C
   C195       1.0     0.199898     0.158267     0.667533    Uiso  ? C
   C196       1.0     0.167533     0.300102     0.841733    Uiso  ? C
   C197       1.0     0.111230     0.056951     0.866983    Uiso  ? C
   C198       1.0     0.116983     0.193049     0.861230    Uiso  ? C
   C199       1.0     0.341733     0.332467     0.699898    Uiso  ? C
   C200       1.0     0.902201     0.146722     0.965786    Uiso  ? C
   C201       1.0     0.949420     0.002666     0.918098    Uiso  ? C
   C202       1.0     0.892799     0.046678     0.984567    Uiso  ? C
   C203       1.0     0.957998     0.063885     0.910642    Uiso  ? C
   C204       1.0     0.917533     0.091733     0.949898    Uiso  ? C
   C205       1.0     0.274765     0.372839     0.889420    Uiso  ? C
   C206       1.0     0.296678     0.357201     0.734567    Uiso  ? C
   C207       1.0     0.207998     0.339358     0.813885    Uiso  ? C
   C208       1.0     0.243388     0.339479     0.713789    Uiso  ? C
   C209       1.0     0.304098     0.373074     0.791512    Uiso  ? C
   C210       1.0     0.260145     0.365065     0.831592    Uiso  ? C
   C211       1.0     0.373860     0.343551     0.982989    Uiso  ? C
   C212       1.0     0.517011     0.626140     0.843551    Uiso  ? C
   C213       1.0     0.406449     0.376140     0.767011    Uiso  ? C
   C214       1.0     0.465786     0.597799     0.853278    Uiso  ? C
   C215       1.0     0.396722     0.347799     0.715786    Uiso  ? C
   C216       1.0     0.377161     0.475235     0.860580    Uiso  ? C
   C217       1.0     0.639420     0.622839     0.975235    Uiso  ? C
   C218       1.0     0.418098     0.550580     0.997334    Uiso  ? C
   C219       1.0     0.484567     0.607201     0.953322    Uiso  ? C
   C220       1.0     0.410642     0.542002     0.936115    Uiso  ? C
   C221       1.0     0.376926     0.445902     0.958488    Uiso  ? C
   C222       1.0     0.541512     0.623074     0.945902    Uiso  ? C
   C223       1.0     0.384935     0.489855     0.918408    Uiso  ? C
   C224       1.0     0.581592     0.615065     0.989855    Uiso  ? C
   C225       1.0     0.449898     0.582467     0.908267    Uiso  ? C
   C226       1.0     0.366983     0.388770     0.943049    Uiso  ? C
   C227       1.0     0.556951     0.633017     0.888770    Uiso  ? C
   C228       1.0     0.361230     0.383017     0.806951    Uiso  ? C
   C229       1.0     0.732989     0.593551     0.876140    Uiso  ? C
   C230       1.0     0.784214     0.603278     0.847799    Uiso  ? C
   C231       1.0     0.872839     0.610580     0.725235    Uiso  ? C
   C232       1.0     0.800102     0.658267     0.832467    Uiso  ? C
   C233       1.0     0.693049     0.638770     0.883017    Uiso  ? C
   C234       1.0     0.146722     0.965786     0.902201    Uiso  ? C
   C235       1.0     0.002666     0.918098     0.949420    Uiso  ? C
   C236       1.0     0.046678     0.984567     0.892799    Uiso  ? C
   C237       1.0     0.063885     0.910642     0.957998    Uiso  ? C
   C238       1.0     0.091733     0.949898     0.917533    Uiso  ? C
   C239       1.0     0.593551     0.876140     0.732989    Uiso  ? C
   C240       1.0     0.603278     0.847799     0.784214    Uiso  ? C
   C241       1.0     0.610580     0.725235     0.872839    Uiso  ? C
   C242       1.0     0.658267     0.832467     0.800102    Uiso  ? C
   C243       1.0     0.638770     0.883017     0.693049    Uiso  ? C
   C244       1.0     0.800580     0.831902     0.747334    Uiso  ? C
   C245       1.0     0.747334     0.800580     0.831902    Uiso  ? C
   C246       1.0     0.831902     0.747334     0.800580    Uiso  ? C
   C247       1.0     0.765433     0.703322     0.857201    Uiso  ? C
   C248       1.0     0.857201     0.765433     0.703322    Uiso  ? C
   C249       1.0     0.703322     0.857201     0.765433    Uiso  ? C
   C250       1.0     0.686115     0.792002     0.839358    Uiso  ? C
   C251       1.0     0.839358     0.686115     0.792002    Uiso  ? C
   C252       1.0     0.792002     0.839358     0.686115    Uiso  ? C
   C253       1.0     0.963789     0.910521     0.993388    Uiso  ? C
   C254       1.0     0.839479     0.786211     0.756612    Uiso  ? C
   C255       1.0     0.993388     0.963789     0.910521    Uiso  ? C
   C256       1.0     0.756612     0.839479     0.786211    Uiso  ? C
   C257       1.0     0.910521     0.993388     0.963789    Uiso  ? C
   C258       1.0     0.786211     0.756612     0.839479    Uiso  ? C
   C259       1.0     0.708488     0.695902     0.873074    Uiso  ? C
   C260       1.0     0.873074     0.708488     0.695902    Uiso  ? C
   C261       1.0     0.695902     0.873074     0.708488    Uiso  ? C
   C262       1.0     0.668408     0.739855     0.865065    Uiso  ? C
   C263       1.0     0.865065     0.668408     0.739855    Uiso  ? C
   C264       1.0     0.739855     0.865065     0.668408    Uiso  ? C
   H1         1.0     0.604966     0.275823     0.051862    Uiso  ? H
   H2         1.0     0.411316     0.317287     0.062241    Uiso  ? H
   H3         1.0     0.661316     0.187759     0.067287    Uiso  ? H
   H4         1.0     0.500935     0.322835     0.102752    Uiso  ? H
   H5         1.0     0.948138     0.104966     0.224177    Uiso  ? H
   H6         1.0     0.854966     0.198138     0.025823    Uiso  ? H
   H7         1.0     0.932713     0.161316     0.312241    Uiso  ? H
   H8         1.0     0.897248     0.000935     0.177165    Uiso  ? H
   H9         1.0     0.750935     0.147248     0.072835    Uiso  ? H
   H10        1.0     0.051862     0.604966     0.275823    Uiso  ? H
   H11        1.0     0.067287     0.661316     0.187759    Uiso  ? H
   H12        1.0     0.062241     0.411316     0.317287    Uiso  ? H
   H13        1.0     0.102752     0.500935     0.322835    Uiso  ? H
   H14        1.0     0.647248     0.427165     0.249065    Uiso  ? H
   H15        1.0     0.974177     0.354966     0.301862    Uiso  ? H
   H16        1.0     0.698138     0.474177     0.145034    Uiso  ? H
   H17        1.0     0.682713     0.562241     0.088684    Uiso  ? H
   H18        1.0     0.224177     0.948138     0.104966    Uiso  ? H
   H19        1.0     0.025823     0.854966     0.198138    Uiso  ? H
   H20        1.0     0.312241     0.932713     0.161316    Uiso  ? H
   H21        1.0     0.072835     0.750935     0.147248    Uiso  ? H
   H22        1.0     0.177165     0.897248     0.000935    Uiso  ? H
   H23        1.0     0.352752     0.927165     0.250935    Uiso  ? H
   H24        1.0     0.937759     0.911316     0.182713    Uiso  ? H
   H25        1.0     0.275823     0.051862     0.604966    Uiso  ? H
   H26        1.0     0.187759     0.067287     0.661316    Uiso  ? H
   H27        1.0     0.317287     0.062241     0.411316    Uiso  ? H
   H28        1.0     0.322835     0.102752     0.500935    Uiso  ? H
   H29        1.0     0.427165     0.249065     0.647248    Uiso  ? H
   H30        1.0     0.927165     0.250935     0.352752    Uiso  ? H
   H31        1.0     0.249065     0.647248     0.427165    Uiso  ? H
   H32        1.0     0.775823     0.448138     0.395034    Uiso  ? H
   H33        1.0     0.801862     0.525823     0.645034    Uiso  ? H
   H34        1.0     0.687759     0.432713     0.338684    Uiso  ? H
   H35        1.0     0.817287     0.437759     0.588684    Uiso  ? H
   H36        1.0     0.822835     0.397248     0.499065    Uiso  ? H
   H37        1.0     0.145034     0.698138     0.474177    Uiso  ? H
   H38        1.0     0.301862     0.974177     0.354966    Uiso  ? H
   H39        1.0     0.088684     0.682713     0.562241    Uiso  ? H
   H40        1.0     0.645034     0.801862     0.525823    Uiso  ? H
   H41        1.0     0.395034     0.775823     0.448138    Uiso  ? H
   H42        1.0     0.588684     0.817287     0.437759    Uiso  ? H
   H43        1.0     0.338684     0.687759     0.432713    Uiso  ? H
   H44        1.0     0.499065     0.822835     0.397248    Uiso  ? H
   H45        1.0     0.895034     0.724177     0.551862    Uiso  ? H
   H46        1.0     0.838684     0.812241     0.567287    Uiso  ? H
   H47        1.0     0.999065     0.677165     0.602752    Uiso  ? H
   H48        1.0     0.749065     0.852752     0.572835    Uiso  ? H
   H49        1.0     0.104966     0.224177     0.948138    Uiso  ? H
   H50        1.0     0.198138     0.025823     0.854966    Uiso  ? H
   H51        1.0     0.161316     0.312241     0.932713    Uiso  ? H
   H52        1.0     0.000935     0.177165     0.897248    Uiso  ? H
   H53        1.0     0.147248     0.072835     0.750935    Uiso  ? H
   H54        1.0     0.354966     0.301862     0.974177    Uiso  ? H
   H55        1.0     0.474177     0.145034     0.698138    Uiso  ? H
   H56        1.0     0.562241     0.088684     0.682713    Uiso  ? H
   H57        1.0     0.911316     0.182713     0.937759    Uiso  ? H
   H58        1.0     0.250935     0.352752     0.927165    Uiso  ? H
   H59        1.0     0.448138     0.395034     0.775823    Uiso  ? H
   H60        1.0     0.525823     0.645034     0.801862    Uiso  ? H
   H61        1.0     0.432713     0.338684     0.687759    Uiso  ? H
   H62        1.0     0.437759     0.588684     0.817287    Uiso  ? H
   H63        1.0     0.397248     0.499065     0.822835    Uiso  ? H
   H64        1.0     0.724177     0.551862     0.895034    Uiso  ? H
   H65        1.0     0.812241     0.567287     0.838684    Uiso  ? H
   H66        1.0     0.852752     0.572835     0.749065    Uiso  ? H
   H67        1.0     0.677165     0.602752     0.999065    Uiso  ? H
   H68        1.0     0.182713     0.937759     0.911316    Uiso  ? H
   H69        1.0     0.551862     0.895034     0.724177    Uiso  ? H
   H70        1.0     0.567287     0.838684     0.812241    Uiso  ? H
   H71        1.0     0.572835     0.749065     0.852752    Uiso  ? H
   H72        1.0     0.602752     0.999065     0.677165    Uiso  ? H
   B1         1.0     0.835024     0.101667     0.110707    Uiso  ? B
   B2         1.0     0.851667     0.085024     0.139293    Uiso  ? B
   B3         1.0     0.601667     0.389293     0.164976    Uiso  ? B
   B4         1.0     0.585024     0.360707     0.148333    Uiso  ? B
   B5         1.0     0.139293     0.851667     0.085024    Uiso  ? B
   B6         1.0     0.110707     0.835024     0.101667    Uiso  ? B
   B7         1.0     0.360707     0.148333     0.585024    Uiso  ? B
   B8         1.0     0.389293     0.164976     0.601667    Uiso  ? B
   B9         1.0     0.164976     0.601667     0.389293    Uiso  ? B
   B10        1.0     0.148333     0.585024     0.360707    Uiso  ? B
   B11        1.0     0.889293     0.335024     0.398333    Uiso  ? B
   B12        1.0     0.860707     0.351667     0.414976    Uiso  ? B
   B13        1.0     0.914976     0.639293     0.648333    Uiso  ? B
   B14        1.0     0.898333     0.610707     0.664976    Uiso  ? B
   B15        1.0     0.398333     0.889293     0.335024    Uiso  ? B
   B16        1.0     0.414976     0.860707     0.351667    Uiso  ? B
   B17        1.0     0.648333     0.914976     0.639293    Uiso  ? B
   B18        1.0     0.664976     0.898333     0.610707    Uiso  ? B
   B19        1.0     0.101667     0.110707     0.835024    Uiso  ? B
   B20        1.0     0.085024     0.139293     0.851667    Uiso  ? B
   B21        1.0     0.335024     0.398333     0.889293    Uiso  ? B
   B22        1.0     0.639293     0.648333     0.914976    Uiso  ? B
   B23        1.0     0.351667     0.414976     0.860707    Uiso  ? B
   B24        1.0     0.610707     0.664976     0.898333    Uiso  ? B
