
#======================================================================
# CRYSTAL DATA
#----------------------------------------------------------------------
data_VESTA_phase_1

_chemical_name_common                  'POSCAR file written by OVITO Basic 3.8'
_cell_length_a                         24.014999
_cell_length_b                         24.014999
_cell_length_c                         24.014999
_cell_angle_alpha                      90.000000
_cell_angle_beta                       90.000000
_cell_angle_gamma                      90.000000
_cell_volume                           13849.935147
_space_group_name_H-M_alt              'P 1'
_space_group_IT_number                 1

loop_
_space_group_symop_operation_xyz
   'x, y, z'

loop_
   _atom_site_label
   _atom_site_occupancy
   _atom_site_fract_x
   _atom_site_fract_y
   _atom_site_fract_z
   _atom_site_adp_type
   _atom_site_U_iso_or_equiv
   _atom_site_type_symbol
   C1         1.0     0.615425     0.256865     0.106156    Uiso  ? C
   C2         1.0     0.648013     0.210032     0.112304    Uiso  ? C
   C3         1.0     0.630174     0.233303     0.213818    Uiso  ? C
   C4         1.0     0.664217     0.311588     0.287566    Uiso  ? C
   C5         1.0     0.662553     0.215439     0.257652    Uiso  ? C
   C6         1.0     0.625628     0.288747     0.198004    Uiso  ? C
   C7         1.0     0.643576     0.330752     0.234948    Uiso  ? C
   C8         1.0     0.607244     0.299399     0.144276    Uiso  ? C
   C9         1.0     0.865426     0.143844     0.006865    Uiso  ? C
   C10        1.0     0.893843     0.115426     0.243135    Uiso  ? C
   C11        1.0     0.887696     0.148013     0.289968    Uiso  ? C
   C12        1.0     0.891636     0.035939     0.134618    Uiso  ? C
   C13        1.0     0.785939     0.141636     0.115381    Uiso  ? C
   C14        1.0     0.835246     0.113659     0.103112    Uiso  ? C
   C15        1.0     0.863659     0.085246     0.146887    Uiso  ? C
   C16        1.0     0.700855     0.174438     0.245499    Uiso  ? C
   C17        1.0     0.754502     0.200854     0.325560    Uiso  ? C
   C18        1.0     0.674439     0.254503     0.299146    Uiso  ? C
   C19        1.0     0.786181     0.130175     0.266697    Uiso  ? C
   C20        1.0     0.712434     0.164216     0.188412    Uiso  ? C
   C21        1.0     0.742354     0.162554     0.284561    Uiso  ? C
   C22        1.0     0.875627     0.051995     0.038747    Uiso  ? C
   C23        1.0     0.801995     0.125627     0.211252    Uiso  ? C
   C24        1.0     0.893575     0.015051     0.080752    Uiso  ? C
   C25        1.0     0.765051     0.143575     0.169248    Uiso  ? C
   C26        1.0     0.857244     0.105724     0.049398    Uiso  ? C
   C27        1.0     0.855724     0.107244     0.200601    Uiso  ? C
   C28        1.0     0.106157     0.615426     0.256865    Uiso  ? C
   C29        1.0     0.112304     0.648013     0.210031    Uiso  ? C
   C30        1.0     0.213819     0.630174     0.233303    Uiso  ? C
   C31        1.0     0.287566     0.664217     0.311587    Uiso  ? C
   C32        1.0     0.257651     0.662553     0.215439    Uiso  ? C
   C33        1.0     0.198005     0.625627     0.288747    Uiso  ? C
   C34        1.0     0.234949     0.643575     0.330752    Uiso  ? C
   C35        1.0     0.144276     0.607244     0.299398    Uiso  ? C
   C36        1.0     0.643844     0.493135     0.134574    Uiso  ? C
   C37        1.0     0.637696     0.539968     0.101987    Uiso  ? C
   C38        1.0     0.398013     0.362304     0.039968    Uiso  ? C
   C39        1.0     0.535939     0.365382     0.108364    Uiso  ? C
   C40        1.0     0.641636     0.384618     0.214061    Uiso  ? C
   C41        1.0     0.613659     0.396887     0.164754    Uiso  ? C
   C42        1.0     0.585247     0.353113     0.136342    Uiso  ? C
   C43        1.0     0.504502     0.575561     0.049146    Uiso  ? C
   C44        1.0     0.450854     0.495498     0.075560    Uiso  ? C
   C45        1.0     0.536182     0.516697     0.119825    Uiso  ? C
   C46        1.0     0.380175     0.463819     0.016697    Uiso  ? C
   C47        1.0     0.462435     0.438413     0.085783    Uiso  ? C
   C48        1.0     0.561588     0.585783     0.037566    Uiso  ? C
   C49        1.0     0.465438     0.587447     0.007646    Uiso  ? C
   C50        1.0     0.492354     0.534562     0.087446    Uiso  ? C
   C51        1.0     0.412554     0.507646     0.034562    Uiso  ? C
   C52        1.0     0.551996     0.461252     0.124373    Uiso  ? C
   C53        1.0     0.515052     0.419248     0.106425    Uiso  ? C
   C54        1.0     0.605724     0.450601     0.142757    Uiso  ? C
   C55        1.0     0.243135     0.893844     0.115426    Uiso  ? C
   C56        1.0     0.006865     0.865426     0.143843    Uiso  ? C
   C57        1.0     0.289968     0.887696     0.148014    Uiso  ? C
   C58        1.0     0.115382     0.785939     0.141636    Uiso  ? C
   C59        1.0     0.134619     0.891636     0.035939    Uiso  ? C
   C60        1.0     0.146887     0.863659     0.085246    Uiso  ? C
   C61        1.0     0.103113     0.835246     0.113659    Uiso  ? C
   C62        1.0     0.299146     0.674439     0.254502    Uiso  ? C
   C63        1.0     0.245498     0.700854     0.174439    Uiso  ? C
   C64        1.0     0.325561     0.754503     0.200854    Uiso  ? C
   C65        1.0     0.266698     0.786182     0.130175    Uiso  ? C
   C66        1.0     0.188413     0.712435     0.164217    Uiso  ? C
   C67        1.0     0.284562     0.742355     0.162554    Uiso  ? C
   C68        1.0     0.211253     0.801996     0.125628    Uiso  ? C
   C69        1.0     0.038748     0.875627     0.051995    Uiso  ? C
   C70        1.0     0.169248     0.765052     0.143576    Uiso  ? C
   C71        1.0     0.080752     0.893575     0.015051    Uiso  ? C
   C72        1.0     0.200602     0.855724     0.107244    Uiso  ? C
   C73        1.0     0.049399     0.857244     0.105724    Uiso  ? C
   C74        1.0     0.358364     0.884618     0.285939    Uiso  ? C
   C75        1.0     0.369826     0.733303     0.286182    Uiso  ? C
   C76        1.0     0.335784     0.811588     0.212435    Uiso  ? C
   C77        1.0     0.337447     0.715439     0.242350    Uiso  ? C
   C78        1.0     0.374373     0.788747     0.301996    Uiso  ? C
   C79        1.0     0.356425     0.830752     0.265052    Uiso  ? C
   C80        1.0     0.960032     0.898013     0.137696    Uiso  ? C
   C81        1.0     0.924440     0.950854     0.004504    Uiso  ? C
   C82        1.0     0.983303     0.880175     0.036181    Uiso  ? C
   C83        1.0     0.914217     0.962434     0.061588    Uiso  ? C
   C84        1.0     0.256865     0.106156     0.615426    Uiso  ? C
   C85        1.0     0.210032     0.112304     0.648013    Uiso  ? C
   C86        1.0     0.233303     0.213818     0.630175    Uiso  ? C
   C87        1.0     0.311588     0.287565     0.664217    Uiso  ? C
   C88        1.0     0.215439     0.257653     0.662554    Uiso  ? C
   C89        1.0     0.288747     0.198004     0.625628    Uiso  ? C
   C90        1.0     0.330752     0.234948     0.643576    Uiso  ? C
   C91        1.0     0.299398     0.144276     0.607244    Uiso  ? C
   C92        1.0     0.493135     0.134574     0.643843    Uiso  ? C
   C93        1.0     0.362304     0.039968     0.398013    Uiso  ? C
   C94        1.0     0.539968     0.101987     0.637695    Uiso  ? C
   C95        1.0     0.384618     0.214061     0.641636    Uiso  ? C
   C96        1.0     0.365381     0.108364     0.535939    Uiso  ? C
   C97        1.0     0.353112     0.136341     0.585246    Uiso  ? C
   C98        1.0     0.396887     0.164754     0.613658    Uiso  ? C
   C99        1.0     0.575562     0.049144     0.504500    Uiso  ? C
   C100       1.0     0.495500     0.075562     0.450856    Uiso  ? C
   C101       1.0     0.463818     0.016697     0.380173    Uiso  ? C
   C102       1.0     0.516697     0.119826     0.536182    Uiso  ? C
   C103       1.0     0.585783     0.037565     0.561587    Uiso  ? C
   C104       1.0     0.438412     0.085783     0.462434    Uiso  ? C
   C105       1.0     0.534560     0.087446     0.492343    Uiso  ? C
   C106       1.0     0.507657     0.034560     0.412554    Uiso  ? C
   C107       1.0     0.587446     0.007658     0.465440    Uiso  ? C
   C108       1.0     0.461252     0.124373     0.551995    Uiso  ? C
   C109       1.0     0.419248     0.106424     0.515051    Uiso  ? C
   C110       1.0     0.450601     0.142756     0.605724    Uiso  ? C
   C111       1.0     0.884618     0.285939     0.358364    Uiso  ? C
   C112       1.0     0.733303     0.286182     0.369825    Uiso  ? C
   C113       1.0     0.811587     0.212435     0.335783    Uiso  ? C
   C114       1.0     0.715438     0.242355     0.337446    Uiso  ? C
   C115       1.0     0.788747     0.301996     0.374373    Uiso  ? C
   C116       1.0     0.830752     0.265052     0.356425    Uiso  ? C
   C117       1.0     0.134574     0.643843     0.493135    Uiso  ? C
   C118       1.0     0.101987     0.637696     0.539969    Uiso  ? C
   C119       1.0     0.039968     0.398013     0.362303    Uiso  ? C
   C120       1.0     0.108364     0.535939     0.365382    Uiso  ? C
   C121       1.0     0.214061     0.641636     0.384618    Uiso  ? C
   C122       1.0     0.164754     0.613659     0.396887    Uiso  ? C
   C123       1.0     0.136342     0.585246     0.353113    Uiso  ? C
   C124       1.0     0.075563     0.450854     0.495498    Uiso  ? C
   C125       1.0     0.049146     0.504503     0.575560    Uiso  ? C
   C126       1.0     0.119826     0.536181     0.516697    Uiso  ? C
   C127       1.0     0.016698     0.380173     0.463817    Uiso  ? C
   C128       1.0     0.037565     0.561587     0.585783    Uiso  ? C
   C129       1.0     0.085784     0.462434     0.438412    Uiso  ? C
   C130       1.0     0.034561     0.412553     0.507656    Uiso  ? C
   C131       1.0     0.007645     0.465438     0.587446    Uiso  ? C
   C132       1.0     0.087447     0.492354     0.534562    Uiso  ? C
   C133       1.0     0.124373     0.551995     0.461252    Uiso  ? C
   C134       1.0     0.106425     0.515051     0.419248    Uiso  ? C
   C135       1.0     0.142757     0.605724     0.450601    Uiso  ? C
   C136       1.0     0.896887     0.335246     0.386342    Uiso  ? C
   C137       1.0     0.756865     0.393844     0.384575    Uiso  ? C
   C138       1.0     0.856155     0.506866     0.634575    Uiso  ? C
   C139       1.0     0.993135     0.365426     0.356156    Uiso  ? C
   C140       1.0     0.710032     0.387697     0.351987    Uiso  ? C
   C141       1.0     0.862302     0.460032     0.601987    Uiso  ? C
   C142       1.0     0.964061     0.634618     0.608364    Uiso  ? C
   C143       1.0     0.865383     0.391636     0.464062    Uiso  ? C
   C144       1.0     0.853113     0.363659     0.414755    Uiso  ? C
   C145       1.0     0.914754     0.646887     0.636342    Uiso  ? C
   C146       1.0     0.995499     0.424438     0.549146    Uiso  ? C
   C147       1.0     0.963818     0.483303     0.619824    Uiso  ? C
   C148       1.0     0.938413     0.414217     0.537566    Uiso  ? C
   C149       1.0     0.948004     0.538747     0.624372    Uiso  ? C
   C150       1.0     0.961253     0.375627     0.448005    Uiso  ? C
   C151       1.0     0.984948     0.580752     0.606424    Uiso  ? C
   C152       1.0     0.919249     0.393576     0.484949    Uiso  ? C
   C153       1.0     0.799399     0.355724     0.392757    Uiso  ? C
   C154       1.0     0.894276     0.549399     0.642757    Uiso  ? C
   C155       1.0     0.950602     0.357244     0.394276    Uiso  ? C
   C156       1.0     0.886341     0.603113     0.664754    Uiso  ? C
   C157       1.0     0.386341     0.896887     0.335246    Uiso  ? C
   C158       1.0     0.356156     0.993135     0.365425    Uiso  ? C
   C159       1.0     0.384574     0.756865     0.393844    Uiso  ? C
   C160       1.0     0.634574     0.856156     0.506865    Uiso  ? C
   C161       1.0     0.351987     0.710032     0.387696    Uiso  ? C
   C162       1.0     0.601987     0.862304     0.460032    Uiso  ? C
   C163       1.0     0.464061     0.865382     0.391636    Uiso  ? C
   C164       1.0     0.608364     0.964061     0.634618    Uiso  ? C
   C165       1.0     0.414754     0.853113     0.363659    Uiso  ? C
   C166       1.0     0.636341     0.914754     0.646887    Uiso  ? C
   C167       1.0     0.549144     0.995500     0.424437    Uiso  ? C
   C168       1.0     0.619826     0.963818     0.483303    Uiso  ? C
   C169       1.0     0.537566     0.938413     0.414217    Uiso  ? C
   C170       1.0     0.448005     0.961253     0.375627    Uiso  ? C
   C171       1.0     0.624373     0.948004     0.538747    Uiso  ? C
   C172       1.0     0.484949     0.919248     0.393575    Uiso  ? C
   C173       1.0     0.606425     0.984948     0.580752    Uiso  ? C
   C174       1.0     0.394276     0.950601     0.357243    Uiso  ? C
   C175       1.0     0.392756     0.799398     0.355724    Uiso  ? C
   C176       1.0     0.642756     0.894276     0.549398    Uiso  ? C
   C177       1.0     0.664754     0.886341     0.603112    Uiso  ? C
   C178       1.0     0.884574     0.743135     0.606157    Uiso  ? C
   C179       1.0     0.851987     0.789968     0.612305    Uiso  ? C
   C180       1.0     0.714061     0.858364     0.615382    Uiso  ? C
   C181       1.0     0.892756     0.700602     0.644276    Uiso  ? C
   C182       1.0     0.143844     0.006865     0.865425    Uiso  ? C
   C183       1.0     0.115426     0.243135     0.893844    Uiso  ? C
   C184       1.0     0.148013     0.289968     0.887696    Uiso  ? C
   C185       1.0     0.035939     0.134619     0.891636    Uiso  ? C
   C186       1.0     0.141636     0.115382     0.785939    Uiso  ? C
   C187       1.0     0.113659     0.103113     0.835246    Uiso  ? C
   C188       1.0     0.085246     0.146888     0.863659    Uiso  ? C
   C189       1.0     0.200856     0.325562     0.754500    Uiso  ? C
   C190       1.0     0.254501     0.299145     0.674439    Uiso  ? C
   C191       1.0     0.174438     0.245499     0.700855    Uiso  ? C
   C192       1.0     0.130174     0.266697     0.786182    Uiso  ? C
   C193       1.0     0.164216     0.188412     0.712435    Uiso  ? C
   C194       1.0     0.162554     0.284559     0.742342    Uiso  ? C
   C195       1.0     0.051995     0.038748     0.875627    Uiso  ? C
   C196       1.0     0.125627     0.211253     0.801995    Uiso  ? C
   C197       1.0     0.015051     0.080752     0.893575    Uiso  ? C
   C198       1.0     0.143575     0.169248     0.765052    Uiso  ? C
   C199       1.0     0.105724     0.049399     0.857244    Uiso  ? C
   C200       1.0     0.107243     0.200602     0.855724    Uiso  ? C
   C201       1.0     0.898013     0.137695     0.960031    Uiso  ? C
   C202       1.0     0.950856     0.004501     0.924439    Uiso  ? C
   C203       1.0     0.880174     0.036182     0.983303    Uiso  ? C
   C204       1.0     0.962435     0.061588     0.914217    Uiso  ? C
   C205       1.0     0.285939     0.358364     0.884618    Uiso  ? C
   C206       1.0     0.286181     0.369826     0.733303    Uiso  ? C
   C207       1.0     0.212434     0.335783     0.811587    Uiso  ? C
   C208       1.0     0.242347     0.337446     0.715439    Uiso  ? C
   C209       1.0     0.301995     0.374373     0.788748    Uiso  ? C
   C210       1.0     0.265051     0.356425     0.830752    Uiso  ? C
   C211       1.0     0.335246     0.386341     0.896888    Uiso  ? C
   C212       1.0     0.365426     0.356156     0.993135    Uiso  ? C
   C213       1.0     0.506865     0.634574     0.856156    Uiso  ? C
   C214       1.0     0.393844     0.384574     0.756865    Uiso  ? C
   C215       1.0     0.460032     0.601987     0.862304    Uiso  ? C
   C216       1.0     0.387695     0.351987     0.710032    Uiso  ? C
   C217       1.0     0.391636     0.464061     0.865382    Uiso  ? C
   C218       1.0     0.634618     0.608364     0.964061    Uiso  ? C
   C219       1.0     0.646887     0.636342     0.914754    Uiso  ? C
   C220       1.0     0.363659     0.414754     0.853113    Uiso  ? C
   C221       1.0     0.424440     0.549146     0.995497    Uiso  ? C
   C222       1.0     0.483302     0.619826     0.963819    Uiso  ? C
   C223       1.0     0.414217     0.537566     0.938413    Uiso  ? C
   C224       1.0     0.375627     0.448005     0.961253    Uiso  ? C
   C225       1.0     0.538747     0.624374     0.948005    Uiso  ? C
   C226       1.0     0.393575     0.484948     0.919248    Uiso  ? C
   C227       1.0     0.580752     0.606425     0.984949    Uiso  ? C
   C228       1.0     0.357244     0.394276     0.950602    Uiso  ? C
   C229       1.0     0.549398     0.642757     0.894276    Uiso  ? C
   C230       1.0     0.355724     0.392756     0.799399    Uiso  ? C
   C231       1.0     0.603112     0.664754     0.886341    Uiso  ? C
   C232       1.0     0.743134     0.606156     0.884575    Uiso  ? C
   C233       1.0     0.789968     0.612304     0.851987    Uiso  ? C
   C234       1.0     0.858364     0.615382     0.714061    Uiso  ? C
   C235       1.0     0.700601     0.644276     0.892757    Uiso  ? C
   C236       1.0     0.137695     0.960032     0.898013    Uiso  ? C
   C237       1.0     0.004501     0.924439     0.950855    Uiso  ? C
   C238       1.0     0.036182     0.983303     0.880174    Uiso  ? C
   C239       1.0     0.061588     0.914217     0.962434    Uiso  ? C
   C240       1.0     0.606156     0.884574     0.743135    Uiso  ? C
   C241       1.0     0.612304     0.851987     0.789968    Uiso  ? C
   C242       1.0     0.615382     0.714061     0.858364    Uiso  ? C
   C243       1.0     0.644276     0.892756     0.700601    Uiso  ? C
   C244       1.0     0.799144     0.825561     0.745499    Uiso  ? C
   C245       1.0     0.745499     0.799145     0.825562    Uiso  ? C
   C246       1.0     0.825562     0.745499     0.799145    Uiso  ? C
   C247       1.0     0.766697     0.713818     0.869826    Uiso  ? C
   C248       1.0     0.869826     0.766697     0.713819    Uiso  ? C
   C249       1.0     0.713818     0.869826     0.766697    Uiso  ? C
   C250       1.0     0.688412     0.787566     0.835783    Uiso  ? C
   C251       1.0     0.835783     0.688412     0.787566    Uiso  ? C
   C252       1.0     0.787565     0.835784     0.688412    Uiso  ? C
   C253       1.0     0.965439     0.912554     0.992352    Uiso  ? C
   C254       1.0     0.837446     0.784560     0.757653    Uiso  ? C
   C255       1.0     0.992344     0.965441     0.912554    Uiso  ? C
   C256       1.0     0.757654     0.837446     0.784560    Uiso  ? C
   C257       1.0     0.912554     0.992346     0.965440    Uiso  ? C
   C258       1.0     0.784560     0.757654     0.837446    Uiso  ? C
   C259       1.0     0.711253     0.698005     0.874373    Uiso  ? C
   C260       1.0     0.874373     0.711253     0.698005    Uiso  ? C
   C261       1.0     0.698005     0.874373     0.711253    Uiso  ? C
   C262       1.0     0.669248     0.734949     0.856425    Uiso  ? C
   C263       1.0     0.856424     0.669248     0.734949    Uiso  ? C
   C264       1.0     0.734948     0.856425     0.669248    Uiso  ? C
   H1         1.0     0.596061     0.262571     0.065420    Uiso  ? H
   H2         1.0     0.410120     0.325916     0.068564    Uiso  ? H
   H3         1.0     0.660119     0.181437     0.075915    Uiso  ? H
   H4         1.0     0.512405     0.331563     0.089404    Uiso  ? H
   H5         1.0     0.934579     0.096062     0.237430    Uiso  ? H
   H6         1.0     0.846062     0.184580     0.012571    Uiso  ? H
   H7         1.0     0.924084     0.160119     0.318564    Uiso  ? H
   H8         1.0     0.910597     0.012405     0.168437    Uiso  ? H
   H9         1.0     0.762405     0.160597     0.081563    Uiso  ? H
   H10        1.0     0.065421     0.596062     0.262571    Uiso  ? H
   H11        1.0     0.075916     0.660119     0.181436    Uiso  ? H
   H12        1.0     0.068564     0.410119     0.325915    Uiso  ? H
   H13        1.0     0.089403     0.512405     0.331563    Uiso  ? H
   H14        1.0     0.660597     0.418436     0.237596    Uiso  ? H
   H15        1.0     0.987429     0.346061     0.315420    Uiso  ? H
   H16        1.0     0.684580     0.487429     0.153938    Uiso  ? H
   H17        1.0     0.674085     0.568563     0.089880    Uiso  ? H
   H18        1.0     0.237430     0.934580     0.096062    Uiso  ? H
   H19        1.0     0.012571     0.846062     0.184579    Uiso  ? H
   H20        1.0     0.318564     0.924085     0.160120    Uiso  ? H
   H21        1.0     0.081564     0.762405     0.160597    Uiso  ? H
   H22        1.0     0.168437     0.910597     0.012405    Uiso  ? H
   H23        1.0     0.339403     0.918436     0.262405    Uiso  ? H
   H24        1.0     0.931436     0.910119     0.174084    Uiso  ? H
   H25        1.0     0.262571     0.065420     0.596061    Uiso  ? H
   H26        1.0     0.181436     0.075915     0.660119    Uiso  ? H
   H27        1.0     0.325916     0.068563     0.410119    Uiso  ? H
   H28        1.0     0.331563     0.089403     0.512405    Uiso  ? H
   H29        1.0     0.418437     0.237595     0.660597    Uiso  ? H
   H30        1.0     0.918437     0.262405     0.339403    Uiso  ? H
   H31        1.0     0.237596     0.660597     0.418437    Uiso  ? H
   H32        1.0     0.762571     0.434580     0.403939    Uiso  ? H
   H33        1.0     0.815420     0.512572     0.653940    Uiso  ? H
   H34        1.0     0.681436     0.424085     0.339881    Uiso  ? H
   H35        1.0     0.825913     0.431436     0.589881    Uiso  ? H
   H36        1.0     0.831564     0.410598     0.487596    Uiso  ? H
   H37        1.0     0.153938     0.684579     0.487430    Uiso  ? H
   H38        1.0     0.315420     0.987429     0.346061    Uiso  ? H
   H39        1.0     0.089881     0.674084     0.568564    Uiso  ? H
   H40        1.0     0.653938     0.815420     0.512571    Uiso  ? H
   H41        1.0     0.403938     0.762571     0.434580    Uiso  ? H
   H42        1.0     0.589880     0.825915     0.431436    Uiso  ? H
   H43        1.0     0.339880     0.681436     0.424085    Uiso  ? H
   H44        1.0     0.487595     0.831563     0.410597    Uiso  ? H
   H45        1.0     0.903938     0.737429     0.565421    Uiso  ? H
   H46        1.0     0.839881     0.818564     0.575917    Uiso  ? H
   H47        1.0     0.987595     0.668437     0.589403    Uiso  ? H
   H48        1.0     0.737595     0.839403     0.581563    Uiso  ? H
   H49        1.0     0.096062     0.237429     0.934580    Uiso  ? H
   H50        1.0     0.184579     0.012571     0.846061    Uiso  ? H
   H51        1.0     0.160120     0.318564     0.924084    Uiso  ? H
   H52        1.0     0.012405     0.168437     0.910597    Uiso  ? H
   H53        1.0     0.160597     0.081564     0.762405    Uiso  ? H
   H54        1.0     0.346062     0.315420     0.987429    Uiso  ? H
   H55        1.0     0.487429     0.153939     0.684579    Uiso  ? H
   H56        1.0     0.568564     0.089880     0.674084    Uiso  ? H
   H57        1.0     0.910119     0.174084     0.931436    Uiso  ? H
   H58        1.0     0.262405     0.339403     0.918437    Uiso  ? H
   H59        1.0     0.434580     0.403939     0.762571    Uiso  ? H
   H60        1.0     0.512571     0.653938     0.815420    Uiso  ? H
   H61        1.0     0.424084     0.339881     0.681436    Uiso  ? H
   H62        1.0     0.431436     0.589880     0.825916    Uiso  ? H
   H63        1.0     0.410597     0.487595     0.831563    Uiso  ? H
   H64        1.0     0.737429     0.565420     0.903939    Uiso  ? H
   H65        1.0     0.818563     0.575916     0.839881    Uiso  ? H
   H66        1.0     0.839403     0.581564     0.737596    Uiso  ? H
   H67        1.0     0.668436     0.589403     0.987595    Uiso  ? H
   H68        1.0     0.174083     0.931436     0.910118    Uiso  ? H
   H69        1.0     0.565420     0.903939     0.737429    Uiso  ? H
   H70        1.0     0.575916     0.839881     0.818564    Uiso  ? H
   H71        1.0     0.581563     0.737595     0.839403    Uiso  ? H
   H72        1.0     0.589403     0.987595     0.668436    Uiso  ? H
   B1         1.0     0.665011     0.202566     0.173306    Uiso  ? B
   B2         1.0     0.826685     0.165012     0.297433    Uiso  ? B
   B3         1.0     0.173311     0.665012     0.202566    Uiso  ? B
   B4         1.0     0.576686     0.547433     0.084988    Uiso  ? B
   B5         1.0     0.415012     0.423314     0.047433    Uiso  ? B
   B6         1.0     0.297434     0.826684     0.165013    Uiso  ? B
   B7         1.0     0.334988     0.702566     0.326689    Uiso  ? B
   B8         1.0     0.952566     0.915013     0.076685    Uiso  ? B
   B9         1.0     0.202566     0.173307     0.665012    Uiso  ? B
   B10        1.0     0.423301     0.047434     0.415011    Uiso  ? B
   B11        1.0     0.547434     0.084988     0.576698    Uiso  ? B
   B12        1.0     0.702566     0.326684     0.334987    Uiso  ? B
   B13        1.0     0.084988     0.576684     0.547433    Uiso  ? B
   B14        1.0     0.047435     0.415012     0.423303    Uiso  ? B
   B15        1.0     0.923316     0.452567     0.584987    Uiso  ? B
   B16        1.0     0.584989     0.923301     0.452566    Uiso  ? B
   B17        1.0     0.165011     0.297434     0.826699    Uiso  ? B
   B18        1.0     0.915012     0.076694     0.952566    Uiso  ? B
   B19        1.0     0.326693     0.334988     0.702566    Uiso  ? B
   B20        1.0     0.452567     0.584988     0.923315    Uiso  ? B
   B21        1.0     0.076697     0.952566     0.915011    Uiso  ? B
   B22        1.0     0.834988     0.797434     0.673307    Uiso  ? B
   B23        1.0     0.797434     0.673306     0.834988    Uiso  ? B
   B24        1.0     0.673306     0.834988     0.797434    Uiso  ? B
