
#======================================================================
# CRYSTAL DATA
#----------------------------------------------------------------------
data_VESTA_phase_1

_chemical_name_common                  'POSCAR file written by OVITO Basic 3.8'
_cell_length_a                         22.332600
_cell_length_b                         22.332600
_cell_length_c                         22.332600
_cell_angle_alpha                      90.000000
_cell_angle_beta                       90.000000
_cell_angle_gamma                      90.000000
_cell_volume                           11138.272556
_space_group_name_H-M_alt              'P 1'
_space_group_IT_number                 1

loop_
_space_group_symop_operation_xyz
   'x, y, z'

loop_
   _atom_site_label
   _atom_site_occupancy
   _atom_site_fract_x
   _atom_site_fract_y
   _atom_site_fract_z
   _atom_site_adp_type
   _atom_site_U_iso_or_equiv
   _atom_site_type_symbol
   C1         1.0     0.611827     0.254827     0.091362    Uiso  ? C
   C2         1.0     0.643322     0.202304     0.102172    Uiso  ? C
   C3         1.0     0.629419     0.218973     0.206634    Uiso  ? C
   C4         1.0     0.642890     0.308729     0.301528    Uiso  ? C
   C5         1.0     0.650664     0.201821     0.262557    Uiso  ? C
   C6         1.0     0.603162     0.274010     0.195557    Uiso  ? C
   C7         1.0     0.595590     0.294783     0.136694    Uiso  ? C
   C8         1.0     0.654774     0.244534     0.306846    Uiso  ? C
   C9         1.0     0.657297     0.184324     0.159753    Uiso  ? C
   C10        1.0     0.861827     0.158638     0.004827    Uiso  ? C
   C11        1.0     0.908638     0.111827     0.245173    Uiso  ? C
   C12        1.0     0.897828     0.143322     0.297696    Uiso  ? C
   C13        1.0     0.912373     0.042783     0.121963    Uiso  ? C
   C14        1.0     0.792783     0.162373     0.128037    Uiso  ? C
   C15        1.0     0.833609     0.119150     0.106219    Uiso  ? C
   C16        1.0     0.869150     0.083609     0.143781    Uiso  ? C
   C17        1.0     0.693154     0.154774     0.255466    Uiso  ? C
   C18        1.0     0.793366     0.129419     0.281027    Uiso  ? C
   C19        1.0     0.698472     0.142890     0.191271    Uiso  ? C
   C20        1.0     0.737443     0.150664     0.298179    Uiso  ? C
   C21        1.0     0.853162     0.054443     0.024010    Uiso  ? C
   C22        1.0     0.804443     0.103162     0.225990    Uiso  ? C
   C23        1.0     0.840247     0.157297     0.315676    Uiso  ? C
   C24        1.0     0.845590     0.113306     0.044783    Uiso  ? C
   C25        1.0     0.863306     0.095590     0.205217    Uiso  ? C
   C26        1.0     0.091362     0.611827     0.254827    Uiso  ? C
   C27        1.0     0.102172     0.643322     0.202304    Uiso  ? C
   C28        1.0     0.206634     0.629419     0.218973    Uiso  ? C
   C29        1.0     0.301528     0.642890     0.308729    Uiso  ? C
   C30        1.0     0.262557     0.650664     0.201821    Uiso  ? C
   C31        1.0     0.195557     0.603162     0.274010    Uiso  ? C
   C32        1.0     0.136694     0.595590     0.294783    Uiso  ? C
   C33        1.0     0.306846     0.654774     0.244534    Uiso  ? C
   C34        1.0     0.159753     0.657297     0.184324    Uiso  ? C
   C35        1.0     0.658638     0.495173     0.138173    Uiso  ? C
   C36        1.0     0.647828     0.547696     0.106678    Uiso  ? C
   C37        1.0     0.393322     0.352172     0.047696    Uiso  ? C
   C38        1.0     0.542783     0.378037     0.087627    Uiso  ? C
   C39        1.0     0.662373     0.371963     0.207217    Uiso  ? C
   C40        1.0     0.619150     0.393781     0.166391    Uiso  ? C
   C41        1.0     0.583609     0.356219     0.130850    Uiso  ? C
   C42        1.0     0.494534     0.595226     0.056846    Uiso  ? C
   C43        1.0     0.443154     0.505466     0.095226    Uiso  ? C
   C44        1.0     0.543366     0.531027     0.120581    Uiso  ? C
   C45        1.0     0.379419     0.456634     0.031026    Uiso  ? C
   C46        1.0     0.448472     0.441271     0.107110    Uiso  ? C
   C47        1.0     0.558729     0.607110     0.051528    Uiso  ? C
   C48        1.0     0.451821     0.599336     0.012557    Uiso  ? C
   C49        1.0     0.487443     0.548179     0.099335    Uiso  ? C
   C50        1.0     0.400664     0.512557     0.048179    Uiso  ? C
   C51        1.0     0.554443     0.475990     0.146838    Uiso  ? C
   C52        1.0     0.590247     0.565676     0.092703    Uiso  ? C
   C53        1.0     0.407297     0.409753     0.065676    Uiso  ? C
   C54        1.0     0.613306     0.455217     0.154410    Uiso  ? C
   C55        1.0     0.404774     0.556846     0.005466    Uiso  ? C
   C56        1.0     0.245173     0.908638     0.111827    Uiso  ? C
   C57        1.0     0.004827     0.861827     0.158638    Uiso  ? C
   C58        1.0     0.297696     0.897828     0.143322    Uiso  ? C
   C59        1.0     0.128037     0.792783     0.162373    Uiso  ? C
   C60        1.0     0.121963     0.912373     0.042783    Uiso  ? C
   C61        1.0     0.143781     0.869150     0.083609    Uiso  ? C
   C62        1.0     0.106219     0.833609     0.119150    Uiso  ? C
   C63        1.0     0.255466     0.693154     0.154774    Uiso  ? C
   C64        1.0     0.281027     0.793366     0.129419    Uiso  ? C
   C65        1.0     0.191271     0.698472     0.142890    Uiso  ? C
   C66        1.0     0.298179     0.737443     0.150664    Uiso  ? C
   C67        1.0     0.225990     0.804443     0.103162    Uiso  ? C
   C68        1.0     0.024010     0.853162     0.054443    Uiso  ? C
   C69        1.0     0.315676     0.840247     0.157297    Uiso  ? C
   C70        1.0     0.205217     0.863306     0.095590    Uiso  ? C
   C71        1.0     0.044783     0.845590     0.113306    Uiso  ? C
   C72        1.0     0.345226     0.744534     0.193154    Uiso  ? C
   C73        1.0     0.337627     0.871963     0.292783    Uiso  ? C
   C74        1.0     0.370581     0.718973     0.293366    Uiso  ? C
   C75        1.0     0.357110     0.808729     0.198472    Uiso  ? C
   C76        1.0     0.349336     0.701821     0.237443    Uiso  ? C
   C77        1.0     0.396838     0.774010     0.304443    Uiso  ? C
   C78        1.0     0.952304     0.893322     0.147828    Uiso  ? C
   C79        1.0     0.968973     0.879419     0.043366    Uiso  ? C
   C80        1.0     0.892890     0.948472     0.058729    Uiso  ? C
   C81        1.0     0.934324     0.907297     0.090247    Uiso  ? C
   C82        1.0     0.254827     0.091362     0.611827    Uiso  ? C
   C83        1.0     0.202304     0.102172     0.643322    Uiso  ? C
   C84        1.0     0.218973     0.206634     0.629419    Uiso  ? C
   C85        1.0     0.308729     0.301528     0.642890    Uiso  ? C
   C86        1.0     0.201821     0.262557     0.650664    Uiso  ? C
   C87        1.0     0.274010     0.195557     0.603162    Uiso  ? C
   C88        1.0     0.294783     0.136694     0.595590    Uiso  ? C
   C89        1.0     0.244534     0.306846     0.654774    Uiso  ? C
   C90        1.0     0.184324     0.159753     0.657297    Uiso  ? C
   C91        1.0     0.495173     0.138173     0.658638    Uiso  ? C
   C92        1.0     0.352172     0.047696     0.393322    Uiso  ? C
   C93        1.0     0.547696     0.106678     0.647828    Uiso  ? C
   C94        1.0     0.371963     0.207217     0.662373    Uiso  ? C
   C95        1.0     0.378037     0.087627     0.542783    Uiso  ? C
   C96        1.0     0.356219     0.130850     0.583609    Uiso  ? C
   C97        1.0     0.393781     0.166391     0.619150    Uiso  ? C
   C98        1.0     0.595226     0.056846     0.494534    Uiso  ? C
   C99        1.0     0.505466     0.095226     0.443154    Uiso  ? C
   C100       1.0     0.456634     0.031026     0.379419    Uiso  ? C
   C101       1.0     0.531027     0.120581     0.543366    Uiso  ? C
   C102       1.0     0.607110     0.051528     0.558729    Uiso  ? C
   C103       1.0     0.441271     0.107110     0.448472    Uiso  ? C
   C104       1.0     0.548179     0.099335     0.487443    Uiso  ? C
   C105       1.0     0.512557     0.048179     0.400664    Uiso  ? C
   C106       1.0     0.599336     0.012557     0.451821    Uiso  ? C
   C107       1.0     0.475990     0.146838     0.554443    Uiso  ? C
   C108       1.0     0.409753     0.065676     0.407297    Uiso  ? C
   C109       1.0     0.565676     0.092703     0.590247    Uiso  ? C
   C110       1.0     0.455217     0.154410     0.613306    Uiso  ? C
   C111       1.0     0.556846     0.005466     0.404774    Uiso  ? C
   C112       1.0     0.744534     0.193154     0.345226    Uiso  ? C
   C113       1.0     0.871963     0.292783     0.337627    Uiso  ? C
   C114       1.0     0.718973     0.293366     0.370581    Uiso  ? C
   C115       1.0     0.808729     0.198472     0.357110    Uiso  ? C
   C116       1.0     0.701821     0.237443     0.349336    Uiso  ? C
   C117       1.0     0.774010     0.304443     0.396838    Uiso  ? C
   C118       1.0     0.138173     0.658638     0.495173    Uiso  ? C
   C119       1.0     0.106678     0.647828     0.547696    Uiso  ? C
   C120       1.0     0.047696     0.393322     0.352172    Uiso  ? C
   C121       1.0     0.087627     0.542783     0.378037    Uiso  ? C
   C122       1.0     0.207217     0.662373     0.371963    Uiso  ? C
   C123       1.0     0.166391     0.619150     0.393781    Uiso  ? C
   C124       1.0     0.130850     0.583609     0.356219    Uiso  ? C
   C125       1.0     0.095226     0.443154     0.505466    Uiso  ? C
   C126       1.0     0.056846     0.494534     0.595226    Uiso  ? C
   C127       1.0     0.120581     0.543366     0.531027    Uiso  ? C
   C128       1.0     0.031026     0.379419     0.456634    Uiso  ? C
   C129       1.0     0.051528     0.558729     0.607110    Uiso  ? C
   C130       1.0     0.107110     0.448472     0.441271    Uiso  ? C
   C131       1.0     0.048179     0.400664     0.512557    Uiso  ? C
   C132       1.0     0.012557     0.451821     0.599336    Uiso  ? C
   C133       1.0     0.099335     0.487443     0.548179    Uiso  ? C
   C134       1.0     0.146838     0.554443     0.475990    Uiso  ? C
   C135       1.0     0.092703     0.590247     0.565676    Uiso  ? C
   C136       1.0     0.065676     0.407297     0.409753    Uiso  ? C
   C137       1.0     0.154410     0.613306     0.455217    Uiso  ? C
   C138       1.0     0.005466     0.404774     0.556846    Uiso  ? C
   C139       1.0     0.893781     0.333609     0.380850    Uiso  ? C
   C140       1.0     0.684324     0.340247     0.342703    Uiso  ? C
   C141       1.0     0.754827     0.408638     0.388173    Uiso  ? C
   C142       1.0     0.841362     0.504827     0.638173    Uiso  ? C
   C143       1.0     0.995173     0.361827     0.341362    Uiso  ? C
   C144       1.0     0.702304     0.397828     0.356678    Uiso  ? C
   C145       1.0     0.852172     0.452304     0.606678    Uiso  ? C
   C146       1.0     0.957217     0.621963     0.587627    Uiso  ? C
   C147       1.0     0.878037     0.412373     0.457217    Uiso  ? C
   C148       1.0     0.856219     0.369150     0.416391    Uiso  ? C
   C149       1.0     0.916391     0.643781     0.630850    Uiso  ? C
   C150       1.0     0.956634     0.468973     0.620581    Uiso  ? C
   C151       1.0     0.941271     0.392890     0.551528    Uiso  ? C
   C152       1.0     0.945557     0.524010     0.646838    Uiso  ? C
   C153       1.0     0.975990     0.353162     0.445557    Uiso  ? C
   C154       1.0     0.909753     0.434324     0.592703    Uiso  ? C
   C155       1.0     0.794783     0.363306     0.404410    Uiso  ? C
   C156       1.0     0.886694     0.544783     0.654410    Uiso  ? C
   C157       1.0     0.955217     0.345590     0.386694    Uiso  ? C
   C158       1.0     0.880850     0.606219     0.666391    Uiso  ? C
   C159       1.0     0.380850     0.893781     0.333609    Uiso  ? C
   C160       1.0     0.342703     0.684324     0.340247    Uiso  ? C
   C161       1.0     0.341362     0.995173     0.361827    Uiso  ? C
   C162       1.0     0.388173     0.754827     0.408638    Uiso  ? C
   C163       1.0     0.638173     0.841362     0.504827    Uiso  ? C
   C164       1.0     0.356678     0.702304     0.397828    Uiso  ? C
   C165       1.0     0.606678     0.852172     0.452304    Uiso  ? C
   C166       1.0     0.457217     0.878037     0.412373    Uiso  ? C
   C167       1.0     0.587627     0.957217     0.621963    Uiso  ? C
   C168       1.0     0.416391     0.856219     0.369150    Uiso  ? C
   C169       1.0     0.630850     0.916391     0.643781    Uiso  ? C
   C170       1.0     0.620581     0.956634     0.468973    Uiso  ? C
   C171       1.0     0.551528     0.941271     0.392890    Uiso  ? C
   C172       1.0     0.445557     0.975990     0.353162    Uiso  ? C
   C173       1.0     0.646838     0.945557     0.524010    Uiso  ? C
   C174       1.0     0.592703     0.909753     0.434324    Uiso  ? C
   C175       1.0     0.386694     0.955217     0.345590    Uiso  ? C
   C176       1.0     0.404410     0.794783     0.363306    Uiso  ? C
   C177       1.0     0.654410     0.886694     0.544783    Uiso  ? C
   C178       1.0     0.666391     0.880850     0.606219    Uiso  ? C
   C179       1.0     0.888173     0.745173     0.591362    Uiso  ? C
   C180       1.0     0.856678     0.797696     0.602172    Uiso  ? C
   C181       1.0     0.707217     0.837627     0.628037    Uiso  ? C
   C182       1.0     0.842703     0.815676     0.659753    Uiso  ? C
   C183       1.0     0.904410     0.705217     0.636694    Uiso  ? C
   C184       1.0     0.158638     0.004827     0.861827    Uiso  ? C
   C185       1.0     0.111827     0.245173     0.908638    Uiso  ? C
   C186       1.0     0.143322     0.297696     0.897828    Uiso  ? C
   C187       1.0     0.042783     0.121963     0.912373    Uiso  ? C
   C188       1.0     0.162373     0.128037     0.792783    Uiso  ? C
   C189       1.0     0.119150     0.106219     0.833609    Uiso  ? C
   C190       1.0     0.083609     0.143781     0.869150    Uiso  ? C
   C191       1.0     0.154774     0.255466     0.693154    Uiso  ? C
   C192       1.0     0.129419     0.281027     0.793366    Uiso  ? C
   C193       1.0     0.142890     0.191271     0.698472    Uiso  ? C
   C194       1.0     0.150664     0.298179     0.737443    Uiso  ? C
   C195       1.0     0.054443     0.024010     0.853162    Uiso  ? C
   C196       1.0     0.103162     0.225990     0.804443    Uiso  ? C
   C197       1.0     0.157297     0.315676     0.840247    Uiso  ? C
   C198       1.0     0.113306     0.044783     0.845590    Uiso  ? C
   C199       1.0     0.095590     0.205217     0.863306    Uiso  ? C
   C200       1.0     0.893322     0.147828     0.952304    Uiso  ? C
   C201       1.0     0.879419     0.043366     0.968973    Uiso  ? C
   C202       1.0     0.948472     0.058729     0.892890    Uiso  ? C
   C203       1.0     0.907297     0.090247     0.934324    Uiso  ? C
   C204       1.0     0.193154     0.345226     0.744534    Uiso  ? C
   C205       1.0     0.292783     0.337627     0.871963    Uiso  ? C
   C206       1.0     0.293366     0.370581     0.718973    Uiso  ? C
   C207       1.0     0.198472     0.357110     0.808729    Uiso  ? C
   C208       1.0     0.237443     0.349336     0.701821    Uiso  ? C
   C209       1.0     0.304443     0.396838     0.774010    Uiso  ? C
   C210       1.0     0.333609     0.380850     0.893781    Uiso  ? C
   C211       1.0     0.340247     0.342703     0.684324    Uiso  ? C
   C212       1.0     0.361827     0.341362     0.995173    Uiso  ? C
   C213       1.0     0.504827     0.638173     0.841362    Uiso  ? C
   C214       1.0     0.408638     0.388173     0.754827    Uiso  ? C
   C215       1.0     0.452304     0.606678     0.852172    Uiso  ? C
   C216       1.0     0.397828     0.356678     0.702304    Uiso  ? C
   C217       1.0     0.412373     0.457217     0.878037    Uiso  ? C
   C218       1.0     0.621963     0.587627     0.957217    Uiso  ? C
   C219       1.0     0.643781     0.630850     0.916391    Uiso  ? C
   C220       1.0     0.369150     0.416391     0.856219    Uiso  ? C
   C221       1.0     0.468973     0.620581     0.956634    Uiso  ? C
   C222       1.0     0.392890     0.551528     0.941271    Uiso  ? C
   C223       1.0     0.353162     0.445557     0.975990    Uiso  ? C
   C224       1.0     0.524010     0.646838     0.945557    Uiso  ? C
   C225       1.0     0.434324     0.592703     0.909753    Uiso  ? C
   C226       1.0     0.345590     0.386694     0.955217    Uiso  ? C
   C227       1.0     0.544783     0.654410     0.886694    Uiso  ? C
   C228       1.0     0.363306     0.404410     0.794783    Uiso  ? C
   C229       1.0     0.606219     0.666391     0.880850    Uiso  ? C
   C230       1.0     0.745173     0.591362     0.888173    Uiso  ? C
   C231       1.0     0.797696     0.602172     0.856678    Uiso  ? C
   C232       1.0     0.837627     0.628037     0.707217    Uiso  ? C
   C233       1.0     0.815676     0.659753     0.842703    Uiso  ? C
   C234       1.0     0.705217     0.636694     0.904410    Uiso  ? C
   C235       1.0     0.147828     0.952304     0.893322    Uiso  ? C
   C236       1.0     0.043366     0.968973     0.879419    Uiso  ? C
   C237       1.0     0.058729     0.892890     0.948472    Uiso  ? C
   C238       1.0     0.090247     0.934324     0.907297    Uiso  ? C
   C239       1.0     0.591362     0.888173     0.745173    Uiso  ? C
   C240       1.0     0.602172     0.856678     0.797696    Uiso  ? C
   C241       1.0     0.628037     0.707217     0.837627    Uiso  ? C
   C242       1.0     0.659753     0.842703     0.815676    Uiso  ? C
   C243       1.0     0.636694     0.904410     0.705217    Uiso  ? C
   C244       1.0     0.904774     0.943154     0.994534    Uiso  ? C
   C245       1.0     0.943154     0.994534     0.904774    Uiso  ? C
   C246       1.0     0.994534     0.904774     0.943154    Uiso  ? C
   C247       1.0     0.806846     0.845226     0.755466    Uiso  ? C
   C248       1.0     0.755466     0.806846     0.845226    Uiso  ? C
   C249       1.0     0.845226     0.755466     0.806846    Uiso  ? C
   C250       1.0     0.781027     0.706634     0.870581    Uiso  ? C
   C251       1.0     0.870581     0.781027     0.706634    Uiso  ? C
   C252       1.0     0.706634     0.870581     0.781027    Uiso  ? C
   C253       1.0     0.691271     0.801528     0.857110    Uiso  ? C
   C254       1.0     0.857110     0.691271     0.801528    Uiso  ? C
   C255       1.0     0.801528     0.857110     0.691271    Uiso  ? C
   C256       1.0     0.951821     0.900664     0.987443    Uiso  ? C
   C257       1.0     0.849336     0.798179     0.762557    Uiso  ? C
   C258       1.0     0.987443     0.951821     0.900664    Uiso  ? C
   C259       1.0     0.762557     0.849336     0.798179    Uiso  ? C
   C260       1.0     0.900664     0.987443     0.951821    Uiso  ? C
   C261       1.0     0.798179     0.762557     0.849336    Uiso  ? C
   C262       1.0     0.725990     0.695557     0.896838    Uiso  ? C
   C263       1.0     0.896838     0.725990     0.695557    Uiso  ? C
   C264       1.0     0.695557     0.896838     0.725990    Uiso  ? C
   B1         1.0     0.633684     0.317183     0.235690    Uiso  ? B
   B2         1.0     0.883684     0.014310     0.067183    Uiso  ? B
   B3         1.0     0.764310     0.133684     0.182817    Uiso  ? B
   B4         1.0     0.235690     0.633684     0.317183    Uiso  ? B
   B5         1.0     0.514310     0.432817     0.116316    Uiso  ? B
   B6         1.0     0.182817     0.764310     0.133684    Uiso  ? B
   B7         1.0     0.067183     0.883684     0.014310    Uiso  ? B
   B8         1.0     0.366316     0.817183     0.264310    Uiso  ? B
   B9         1.0     0.317183     0.235690     0.633684    Uiso  ? B
   B10        1.0     0.432817     0.116316     0.514310    Uiso  ? B
   B11        1.0     0.817183     0.264310     0.366316    Uiso  ? B
   B12        1.0     0.116316     0.514310     0.432817    Uiso  ? B
   B13        1.0     0.985690     0.567183     0.616316    Uiso  ? B
   B14        1.0     0.932817     0.383684     0.485690    Uiso  ? B
   B15        1.0     0.485690     0.932817     0.383684    Uiso  ? B
   B16        1.0     0.616316     0.985690     0.567183    Uiso  ? B
   B17        1.0     0.014310     0.067183     0.883684    Uiso  ? B
   B18        1.0     0.133684     0.182817     0.764310    Uiso  ? B
   B19        1.0     0.264310     0.366316     0.817183    Uiso  ? B
   B20        1.0     0.383684     0.485690     0.932817    Uiso  ? B
   B21        1.0     0.567183     0.616316     0.985690    Uiso  ? B
   B22        1.0     0.682817     0.735690     0.866316    Uiso  ? B
   B23        1.0     0.866316     0.682817     0.735690    Uiso  ? B
   B24        1.0     0.735690     0.866316     0.682817    Uiso  ? B
   H1         1.0     0.602781     0.267258     0.045042    Uiso  ? H
   H2         1.0     0.409202     0.314313     0.074084    Uiso  ? H
   H3         1.0     0.659202     0.175916     0.064314    Uiso  ? H
   H4         1.0     0.954958     0.102781     0.232742    Uiso  ? H
   H5         1.0     0.852781     0.204958     0.017258    Uiso  ? H
   H6         1.0     0.935687     0.159202     0.324084    Uiso  ? H
   H7         1.0     0.958513     0.034086     0.142463    Uiso  ? H
   H8         1.0     0.784086     0.208513     0.107537    Uiso  ? H
   H9         1.0     0.892463     0.284086     0.291487    Uiso  ? H
   H10        1.0     0.045042     0.602781     0.267258    Uiso  ? H
   H11        1.0     0.064314     0.659202     0.175916    Uiso  ? H
   H12        1.0     0.074084     0.409202     0.314313    Uiso  ? H
   H13        1.0     0.534086     0.357537     0.041487    Uiso  ? H
   H14        1.0     0.708513     0.392463     0.215914    Uiso  ? H
   H15        1.0     0.982742     0.352781     0.295042    Uiso  ? H
   H16        1.0     0.704958     0.482742     0.147219    Uiso  ? H
   H17        1.0     0.685687     0.574084     0.090798    Uiso  ? H
   H18        1.0     0.232742     0.954958     0.102781    Uiso  ? H
   H19        1.0     0.017258     0.852781     0.204958    Uiso  ? H
   H20        1.0     0.324084     0.935687     0.159202    Uiso  ? H
   H21        1.0     0.107537     0.784086     0.208513    Uiso  ? H
   H22        1.0     0.142463     0.958513     0.034086    Uiso  ? H
   H23        1.0     0.291487     0.892463     0.284086    Uiso  ? H
   H24        1.0     0.925916     0.909202     0.185687    Uiso  ? H
   H25        1.0     0.267258     0.045042     0.602781    Uiso  ? H
   H26        1.0     0.175916     0.064314     0.659202    Uiso  ? H
   H27        1.0     0.314313     0.074084     0.409202    Uiso  ? H
   H28        1.0     0.357537     0.041487     0.534086    Uiso  ? H
   H29        1.0     0.041487     0.534086     0.357537    Uiso  ? H
   H30        1.0     0.767258     0.454958     0.397219    Uiso  ? H
   H31        1.0     0.795042     0.517258     0.647219    Uiso  ? H
   H32        1.0     0.675916     0.435687     0.340798    Uiso  ? H
   H33        1.0     0.814313     0.425916     0.590798    Uiso  ? H
   H34        1.0     0.857537     0.458513     0.465914    Uiso  ? H
   H35        1.0     0.965914     0.642463     0.541487    Uiso  ? H
   H36        1.0     0.215914     0.708513     0.392463    Uiso  ? H
   H37        1.0     0.147219     0.704958     0.482742    Uiso  ? H
   H38        1.0     0.295042     0.982742     0.352781    Uiso  ? H
   H39        1.0     0.090798     0.685687     0.574084    Uiso  ? H
   H40        1.0     0.647219     0.795042     0.517258    Uiso  ? H
   H41        1.0     0.397219     0.767258     0.454958    Uiso  ? H
   H42        1.0     0.590798     0.814313     0.425916    Uiso  ? H
   H43        1.0     0.340798     0.675916     0.435687    Uiso  ? H
   H44        1.0     0.465914     0.857537     0.458513    Uiso  ? H
   H45        1.0     0.541487     0.965914     0.642463    Uiso  ? H
   H46        1.0     0.897219     0.732742     0.545042    Uiso  ? H
   H47        1.0     0.840798     0.824084     0.564313    Uiso  ? H
   H48        1.0     0.715914     0.791487     0.607537    Uiso  ? H
   H49        1.0     0.102781     0.232742     0.954958    Uiso  ? H
   H50        1.0     0.204958     0.017258     0.852781    Uiso  ? H
   H51        1.0     0.159202     0.324084     0.935687    Uiso  ? H
   H52        1.0     0.034086     0.142463     0.958513    Uiso  ? H
   H53        1.0     0.208513     0.107537     0.784086    Uiso  ? H
   H54        1.0     0.284086     0.291487     0.892463    Uiso  ? H
   H55        1.0     0.392463     0.215914     0.708513    Uiso  ? H
   H56        1.0     0.352781     0.295042     0.982742    Uiso  ? H
   H57        1.0     0.482742     0.147219     0.704958    Uiso  ? H
   H58        1.0     0.574084     0.090798     0.685687    Uiso  ? H
   H59        1.0     0.909202     0.185687     0.925916    Uiso  ? H
   H60        1.0     0.454958     0.397219     0.767258    Uiso  ? H
   H61        1.0     0.517258     0.647219     0.795042    Uiso  ? H
   H62        1.0     0.435687     0.340798     0.675916    Uiso  ? H
   H63        1.0     0.425916     0.590798     0.814313    Uiso  ? H
   H64        1.0     0.458513     0.465914     0.857537    Uiso  ? H
   H65        1.0     0.642463     0.541487     0.965914    Uiso  ? H
   H66        1.0     0.732742     0.545042     0.897219    Uiso  ? H
   H67        1.0     0.824084     0.564313     0.840798    Uiso  ? H
   H68        1.0     0.791487     0.607537     0.715914    Uiso  ? H
   H69        1.0     0.185687     0.925916     0.909202    Uiso  ? H
   H70        1.0     0.545042     0.897219     0.732742    Uiso  ? H
   H71        1.0     0.564313     0.840798     0.824084    Uiso  ? H
   H72        1.0     0.607537     0.715914     0.791487    Uiso  ? H
