
#======================================================================
# CRYSTAL DATA
#----------------------------------------------------------------------
data_VESTA_phase_1

_chemical_name_common                  'POSCAR file written by OVITO Basic 3.8'
_cell_length_a                         23.809700
_cell_length_b                         23.809700
_cell_length_c                         23.809700
_cell_angle_alpha                      90.000000
_cell_angle_beta                       90.000000
_cell_angle_gamma                      90.000000
_cell_volume                           13497.762144
_space_group_name_H-M_alt              'P 1'
_space_group_IT_number                 1

loop_
_space_group_symop_operation_xyz
   'x, y, z'

loop_
   _atom_site_label
   _atom_site_occupancy
   _atom_site_fract_x
   _atom_site_fract_y
   _atom_site_fract_z
   _atom_site_adp_type
   _atom_site_U_iso_or_equiv
   _atom_site_type_symbol
   C1         1.0     0.623785     0.262093     0.100533    Uiso  ? C
   C2         1.0     0.655052     0.214706     0.109592    Uiso  ? C
   C3         1.0     0.634807     0.227394     0.207507    Uiso  ? C
   C4         1.0     0.662639     0.308585     0.293500    Uiso  ? C
   C5         1.0     0.656594     0.210865     0.260843    Uiso  ? C
   C6         1.0     0.641154     0.330257     0.242961    Uiso  ? C
   C7         1.0     0.605249     0.300839     0.140955    Uiso  ? C
   C8         1.0     0.666184     0.198723     0.163569    Uiso  ? C
   C9         1.0     0.873785     0.149467     0.012093    Uiso  ? C
   C10        1.0     0.899467     0.123785     0.237907    Uiso  ? C
   C11        1.0     0.890408     0.155052     0.285294    Uiso  ? C
   C12        1.0     0.889288     0.033680     0.132576    Uiso  ? C
   C13        1.0     0.783680     0.139288     0.117424    Uiso  ? C
   C14        1.0     0.829591     0.107360     0.103438    Uiso  ? C
   C15        1.0     0.857360     0.079591     0.146562    Uiso  ? C
   C16        1.0     0.697163     0.167494     0.250733    Uiso  ? C
   C17        1.0     0.749267     0.197163     0.332506    Uiso  ? C
   C18        1.0     0.667494     0.249267     0.302837    Uiso  ? C
   C19        1.0     0.792493     0.134807     0.272606    Uiso  ? C
   C20        1.0     0.706500     0.162639     0.191415    Uiso  ? C
   C21        1.0     0.739157     0.156594     0.289135    Uiso  ? C
   C22        1.0     0.891154     0.007039     0.080257    Uiso  ? C
   C23        1.0     0.757039     0.141154     0.169743    Uiso  ? C
   C24        1.0     0.836431     0.166184     0.301277    Uiso  ? C
   C25        1.0     0.855249     0.109045     0.050839    Uiso  ? C
   C26        1.0     0.859045     0.105249     0.199161    Uiso  ? C
   C27        1.0     0.100533     0.623785     0.262093    Uiso  ? C
   C28        1.0     0.109592     0.655052     0.214706    Uiso  ? C
   C29        1.0     0.207507     0.634807     0.227394    Uiso  ? C
   C30        1.0     0.293500     0.662639     0.308585    Uiso  ? C
   C31        1.0     0.260843     0.656594     0.210865    Uiso  ? C
   C32        1.0     0.242961     0.641154     0.330257    Uiso  ? C
   C33        1.0     0.140955     0.605249     0.300839    Uiso  ? C
   C34        1.0     0.163569     0.666184     0.198723    Uiso  ? C
   C35        1.0     0.649467     0.487907     0.126215    Uiso  ? C
   C36        1.0     0.640408     0.535294     0.094948    Uiso  ? C
   C37        1.0     0.405052     0.359592     0.035294    Uiso  ? C
   C38        1.0     0.533680     0.367424     0.110712    Uiso  ? C
   C39        1.0     0.639288     0.382576     0.216320    Uiso  ? C
   C40        1.0     0.607360     0.396562     0.170409    Uiso  ? C
   C41        1.0     0.579591     0.353438     0.142640    Uiso  ? C
   C42        1.0     0.499267     0.582506     0.052837    Uiso  ? C
   C43        1.0     0.447163     0.500733     0.082506    Uiso  ? C
   C44        1.0     0.542493     0.522606     0.115193    Uiso  ? C
   C45        1.0     0.384807     0.457507     0.022606    Uiso  ? C
   C46        1.0     0.456500     0.441415     0.087361    Uiso  ? C
   C47        1.0     0.558585     0.587361     0.043500    Uiso  ? C
   C48        1.0     0.460865     0.593406     0.010843    Uiso  ? C
   C49        1.0     0.489157     0.539135     0.093406    Uiso  ? C
   C50        1.0     0.406594     0.510843     0.039135    Uiso  ? C
   C51        1.0     0.507039     0.419743     0.108846    Uiso  ? C
   C52        1.0     0.586431     0.551277     0.083816    Uiso  ? C
   C53        1.0     0.416184     0.413569     0.051277    Uiso  ? C
   C54        1.0     0.609045     0.449161     0.144751    Uiso  ? C
   C55        1.0     0.417494     0.552837     0.000733    Uiso  ? C
   C56        1.0     0.237907     0.899467     0.123785    Uiso  ? C
   C57        1.0     0.012093     0.873785     0.149467    Uiso  ? C
   C58        1.0     0.285294     0.890408     0.155052    Uiso  ? C
   C59        1.0     0.117424     0.783680     0.139288    Uiso  ? C
   C60        1.0     0.132576     0.889288     0.033680    Uiso  ? C
   C61        1.0     0.146562     0.857360     0.079591    Uiso  ? C
   C62        1.0     0.103438     0.829591     0.107360    Uiso  ? C
   C63        1.0     0.302837     0.667494     0.249267    Uiso  ? C
   C64        1.0     0.250733     0.697163     0.167494    Uiso  ? C
   C65        1.0     0.332506     0.749267     0.197163    Uiso  ? C
   C66        1.0     0.272606     0.792493     0.134807    Uiso  ? C
   C67        1.0     0.191415     0.706500     0.162639    Uiso  ? C
   C68        1.0     0.289135     0.739157     0.156594    Uiso  ? C
   C69        1.0     0.169743     0.757039     0.141154    Uiso  ? C
   C70        1.0     0.080257     0.891154     0.007039    Uiso  ? C
   C71        1.0     0.301277     0.836431     0.166184    Uiso  ? C
   C72        1.0     0.199161     0.859045     0.105249    Uiso  ? C
   C73        1.0     0.050839     0.855249     0.109045    Uiso  ? C
   C74        1.0     0.360712     0.882576     0.283680    Uiso  ? C
   C75        1.0     0.392640     0.896562     0.329591    Uiso  ? C
   C76        1.0     0.365193     0.727394     0.292493    Uiso  ? C
   C77        1.0     0.337361     0.808585     0.206500    Uiso  ? C
   C78        1.0     0.343406     0.710865     0.239157    Uiso  ? C
   C79        1.0     0.358846     0.830257     0.257039    Uiso  ? C
   C80        1.0     0.964706     0.905052     0.140408    Uiso  ? C
   C81        1.0     0.977394     0.884807     0.042492    Uiso  ? C
   C82        1.0     0.912639     0.956500     0.058585    Uiso  ? C
   C83        1.0     0.948723     0.916184     0.086431    Uiso  ? C
   C84        1.0     0.262093     0.100533     0.623785    Uiso  ? C
   C85        1.0     0.214706     0.109592     0.655052    Uiso  ? C
   C86        1.0     0.227394     0.207507     0.634807    Uiso  ? C
   C87        1.0     0.308585     0.293500     0.662639    Uiso  ? C
   C88        1.0     0.210865     0.260843     0.656594    Uiso  ? C
   C89        1.0     0.330257     0.242961     0.641154    Uiso  ? C
   C90        1.0     0.300839     0.140955     0.605249    Uiso  ? C
   C91        1.0     0.198723     0.163569     0.666184    Uiso  ? C
   C92        1.0     0.487907     0.126215     0.649467    Uiso  ? C
   C93        1.0     0.359592     0.035294     0.405052    Uiso  ? C
   C94        1.0     0.535294     0.094948     0.640408    Uiso  ? C
   C95        1.0     0.382576     0.216320     0.639288    Uiso  ? C
   C96        1.0     0.367424     0.110712     0.533680    Uiso  ? C
   C97        1.0     0.353438     0.142640     0.579591    Uiso  ? C
   C98        1.0     0.396562     0.170409     0.607360    Uiso  ? C
   C99        1.0     0.582506     0.052837     0.499267    Uiso  ? C
   C100       1.0     0.500733     0.082506     0.447163    Uiso  ? C
   C101       1.0     0.457507     0.022606     0.384807    Uiso  ? C
   C102       1.0     0.522606     0.115193     0.542493    Uiso  ? C
   C103       1.0     0.587361     0.043500     0.558585    Uiso  ? C
   C104       1.0     0.441415     0.087361     0.456500    Uiso  ? C
   C105       1.0     0.539135     0.093406     0.489157    Uiso  ? C
   C106       1.0     0.510843     0.039135     0.406594    Uiso  ? C
   C107       1.0     0.593406     0.010843     0.460865    Uiso  ? C
   C108       1.0     0.419743     0.108846     0.507039    Uiso  ? C
   C109       1.0     0.413569     0.051277     0.416184    Uiso  ? C
   C110       1.0     0.551277     0.083816     0.586431    Uiso  ? C
   C111       1.0     0.449161     0.144751     0.609045    Uiso  ? C
   C112       1.0     0.552837     0.000733     0.417494    Uiso  ? C
   C113       1.0     0.882576     0.283680     0.360712    Uiso  ? C
   C114       1.0     0.896562     0.329591     0.392640    Uiso  ? C
   C115       1.0     0.727394     0.292493     0.365193    Uiso  ? C
   C116       1.0     0.808585     0.206500     0.337361    Uiso  ? C
   C117       1.0     0.710865     0.239157     0.343406    Uiso  ? C
   C118       1.0     0.830257     0.257039     0.358846    Uiso  ? C
   C119       1.0     0.126215     0.649467     0.487907    Uiso  ? C
   C120       1.0     0.094948     0.640408     0.535294    Uiso  ? C
   C121       1.0     0.035294     0.405052     0.359592    Uiso  ? C
   C122       1.0     0.110712     0.533680     0.367424    Uiso  ? C
   C123       1.0     0.216320     0.639288     0.382576    Uiso  ? C
   C124       1.0     0.170409     0.607360     0.396562    Uiso  ? C
   C125       1.0     0.142640     0.579591     0.353438    Uiso  ? C
   C126       1.0     0.082506     0.447163     0.500733    Uiso  ? C
   C127       1.0     0.052837     0.499267     0.582506    Uiso  ? C
   C128       1.0     0.115193     0.542493     0.522606    Uiso  ? C
   C129       1.0     0.022606     0.384807     0.457507    Uiso  ? C
   C130       1.0     0.043500     0.558585     0.587361    Uiso  ? C
   C131       1.0     0.087361     0.456500     0.441415    Uiso  ? C
   C132       1.0     0.039135     0.406594     0.510843    Uiso  ? C
   C133       1.0     0.010843     0.460865     0.593406    Uiso  ? C
   C134       1.0     0.093406     0.489157     0.539135    Uiso  ? C
   C135       1.0     0.108846     0.507039     0.419743    Uiso  ? C
   C136       1.0     0.083816     0.586431     0.551277    Uiso  ? C
   C137       1.0     0.051277     0.416184     0.413569    Uiso  ? C
   C138       1.0     0.144751     0.609045     0.449161    Uiso  ? C
   C139       1.0     0.000733     0.417494     0.552837    Uiso  ? C
   C140       1.0     0.698723     0.336431     0.333816    Uiso  ? C
   C141       1.0     0.762093     0.399467     0.376215    Uiso  ? C
   C142       1.0     0.850533     0.512093     0.626215    Uiso  ? C
   C143       1.0     0.987907     0.373785     0.350533    Uiso  ? C
   C144       1.0     0.714706     0.390408     0.344948    Uiso  ? C
   C145       1.0     0.859592     0.464706     0.594948    Uiso  ? C
   C146       1.0     0.966320     0.632576     0.610712    Uiso  ? C
   C147       1.0     0.867424     0.389288     0.466320    Uiso  ? C
   C148       1.0     0.853438     0.357360     0.420409    Uiso  ? C
   C149       1.0     0.920409     0.646562     0.642640    Uiso  ? C
   C150       1.0     0.957507     0.477394     0.615193    Uiso  ? C
   C151       1.0     0.941415     0.412639     0.543500    Uiso  ? C
   C152       1.0     0.992961     0.580257     0.608846    Uiso  ? C
   C153       1.0     0.919743     0.391154     0.492961    Uiso  ? C
   C154       1.0     0.913569     0.448723     0.583816    Uiso  ? C
   C155       1.0     0.800839     0.359045     0.394751    Uiso  ? C
   C156       1.0     0.890955     0.550839     0.644751    Uiso  ? C
   C157       1.0     0.949161     0.355249     0.390955    Uiso  ? C
   C158       1.0     0.333816     0.698723     0.336431    Uiso  ? C
   C159       1.0     0.350533     0.987907     0.373785    Uiso  ? C
   C160       1.0     0.376215     0.762093     0.399467    Uiso  ? C
   C161       1.0     0.626215     0.850533     0.512093    Uiso  ? C
   C162       1.0     0.344948     0.714706     0.390408    Uiso  ? C
   C163       1.0     0.594948     0.859592     0.464706    Uiso  ? C
   C164       1.0     0.466320     0.867424     0.389288    Uiso  ? C
   C165       1.0     0.610712     0.966320     0.632576    Uiso  ? C
   C166       1.0     0.420409     0.853438     0.357360    Uiso  ? C
   C167       1.0     0.642640     0.920409     0.646562    Uiso  ? C
   C168       1.0     0.615193     0.957507     0.477394    Uiso  ? C
   C169       1.0     0.543500     0.941415     0.412639    Uiso  ? C
   C170       1.0     0.492961     0.919743     0.391154    Uiso  ? C
   C171       1.0     0.608846     0.992961     0.580257    Uiso  ? C
   C172       1.0     0.583816     0.913569     0.448723    Uiso  ? C
   C173       1.0     0.390955     0.949161     0.355249    Uiso  ? C
   C174       1.0     0.394751     0.800839     0.359045    Uiso  ? C
   C175       1.0     0.644751     0.890955     0.550839    Uiso  ? C
   C176       1.0     0.876215     0.737907     0.600533    Uiso  ? C
   C177       1.0     0.844948     0.785294     0.609592    Uiso  ? C
   C178       1.0     0.716320     0.860712     0.617424    Uiso  ? C
   C179       1.0     0.670409     0.892640     0.603438    Uiso  ? C
   C180       1.0     0.833816     0.801277     0.663569    Uiso  ? C
   C181       1.0     0.894751     0.699161     0.640955    Uiso  ? C
   C182       1.0     0.149467     0.012093     0.873785    Uiso  ? C
   C183       1.0     0.123785     0.237907     0.899467    Uiso  ? C
   C184       1.0     0.155052     0.285294     0.890408    Uiso  ? C
   C185       1.0     0.033680     0.132576     0.889288    Uiso  ? C
   C186       1.0     0.139288     0.117424     0.783680    Uiso  ? C
   C187       1.0     0.107360     0.103438     0.829591    Uiso  ? C
   C188       1.0     0.079591     0.146562     0.857360    Uiso  ? C
   C189       1.0     0.197163     0.332506     0.749267    Uiso  ? C
   C190       1.0     0.249267     0.302837     0.667494    Uiso  ? C
   C191       1.0     0.167494     0.250733     0.697163    Uiso  ? C
   C192       1.0     0.134807     0.272606     0.792493    Uiso  ? C
   C193       1.0     0.162639     0.191415     0.706500    Uiso  ? C
   C194       1.0     0.156594     0.289135     0.739157    Uiso  ? C
   C195       1.0     0.007039     0.080257     0.891154    Uiso  ? C
   C196       1.0     0.141154     0.169743     0.757039    Uiso  ? C
   C197       1.0     0.166184     0.301277     0.836431    Uiso  ? C
   C198       1.0     0.109045     0.050839     0.855249    Uiso  ? C
   C199       1.0     0.105249     0.199161     0.859045    Uiso  ? C
   C200       1.0     0.905052     0.140408     0.964706    Uiso  ? C
   C201       1.0     0.884807     0.042492     0.977394    Uiso  ? C
   C202       1.0     0.956500     0.058585     0.912639    Uiso  ? C
   C203       1.0     0.916184     0.086431     0.948723    Uiso  ? C
   C204       1.0     0.283680     0.360712     0.882576    Uiso  ? C
   C205       1.0     0.329591     0.392640     0.896562    Uiso  ? C
   C206       1.0     0.292493     0.365193     0.727394    Uiso  ? C
   C207       1.0     0.206500     0.337361     0.808585    Uiso  ? C
   C208       1.0     0.239157     0.343406     0.710865    Uiso  ? C
   C209       1.0     0.257039     0.358846     0.830257    Uiso  ? C
   C210       1.0     0.336431     0.333816     0.698723    Uiso  ? C
   C211       1.0     0.373785     0.350533     0.987907    Uiso  ? C
   C212       1.0     0.512093     0.626215     0.850533    Uiso  ? C
   C213       1.0     0.399467     0.376215     0.762093    Uiso  ? C
   C214       1.0     0.464706     0.594948     0.859592    Uiso  ? C
   C215       1.0     0.390408     0.344948     0.714706    Uiso  ? C
   C216       1.0     0.389288     0.466320     0.867424    Uiso  ? C
   C217       1.0     0.632576     0.610712     0.966320    Uiso  ? C
   C218       1.0     0.646562     0.642640     0.920409    Uiso  ? C
   C219       1.0     0.357360     0.420409     0.853438    Uiso  ? C
   C220       1.0     0.477394     0.615193     0.957507    Uiso  ? C
   C221       1.0     0.412639     0.543500     0.941415    Uiso  ? C
   C222       1.0     0.391154     0.492961     0.919743    Uiso  ? C
   C223       1.0     0.580257     0.608846     0.992961    Uiso  ? C
   C224       1.0     0.448723     0.583816     0.913569    Uiso  ? C
   C225       1.0     0.355249     0.390955     0.949161    Uiso  ? C
   C226       1.0     0.550839     0.644751     0.890955    Uiso  ? C
   C227       1.0     0.359045     0.394751     0.800839    Uiso  ? C
   C228       1.0     0.737907     0.600533     0.876215    Uiso  ? C
   C229       1.0     0.785294     0.609592     0.844948    Uiso  ? C
   C230       1.0     0.860712     0.617424     0.716320    Uiso  ? C
   C231       1.0     0.892640     0.603438     0.670409    Uiso  ? C
   C232       1.0     0.801277     0.663569     0.833816    Uiso  ? C
   C233       1.0     0.699161     0.640955     0.894751    Uiso  ? C
   C234       1.0     0.140408     0.964706     0.905052    Uiso  ? C
   C235       1.0     0.042492     0.977394     0.884807    Uiso  ? C
   C236       1.0     0.058585     0.912639     0.956500    Uiso  ? C
   C237       1.0     0.086431     0.948723     0.916184    Uiso  ? C
   C238       1.0     0.600533     0.876215     0.737907    Uiso  ? C
   C239       1.0     0.609592     0.844948     0.785294    Uiso  ? C
   C240       1.0     0.617424     0.716320     0.860712    Uiso  ? C
   C241       1.0     0.603438     0.670409     0.892640    Uiso  ? C
   C242       1.0     0.663569     0.833816     0.801277    Uiso  ? C
   C243       1.0     0.640955     0.894751     0.699161    Uiso  ? C
   C244       1.0     0.917494     0.947163     0.999267    Uiso  ? C
   C245       1.0     0.947163     0.999267     0.917494    Uiso  ? C
   C246       1.0     0.999267     0.917494     0.947163    Uiso  ? C
   C247       1.0     0.802837     0.832506     0.750733    Uiso  ? C
   C248       1.0     0.750733     0.802837     0.832506    Uiso  ? C
   C249       1.0     0.832506     0.750733     0.802837    Uiso  ? C
   C250       1.0     0.772606     0.707507     0.865193    Uiso  ? C
   C251       1.0     0.865193     0.772606     0.707507    Uiso  ? C
   C252       1.0     0.707507     0.865193     0.772606    Uiso  ? C
   C253       1.0     0.691415     0.793500     0.837361    Uiso  ? C
   C254       1.0     0.837361     0.691415     0.793500    Uiso  ? C
   C255       1.0     0.793500     0.837361     0.691415    Uiso  ? C
   C256       1.0     0.960865     0.906594     0.989157    Uiso  ? C
   C257       1.0     0.843406     0.789135     0.760843    Uiso  ? C
   C258       1.0     0.989157     0.960865     0.906594    Uiso  ? C
   C259       1.0     0.760843     0.843406     0.789135    Uiso  ? C
   C260       1.0     0.906594     0.989157     0.960865    Uiso  ? C
   C261       1.0     0.789135     0.760843     0.843406    Uiso  ? C
   C262       1.0     0.669743     0.742961     0.858846    Uiso  ? C
   C263       1.0     0.858846     0.669743     0.742961    Uiso  ? C
   C264       1.0     0.742961     0.858846     0.669743    Uiso  ? C
   B1         1.0     0.627287     0.288238     0.198119    Uiso  ? B
   B2         1.0     0.877287     0.051881     0.038238    Uiso  ? B
   B3         1.0     0.801881     0.127287     0.211762    Uiso  ? B
   B4         1.0     0.198119     0.627287     0.288238    Uiso  ? B
   B5         1.0     0.551881     0.461762     0.122713    Uiso  ? B
   B6         1.0     0.211762     0.801881     0.127287    Uiso  ? B
   B7         1.0     0.038238     0.877287     0.051881    Uiso  ? B
   B8         1.0     0.372713     0.788238     0.301881    Uiso  ? B
   B9         1.0     0.288238     0.198119     0.627287    Uiso  ? B
   B10        1.0     0.461762     0.122713     0.551881    Uiso  ? B
   B11        1.0     0.788238     0.301881     0.372713    Uiso  ? B
   B12        1.0     0.122713     0.551881     0.461762    Uiso  ? B
   B13        1.0     0.948119     0.538238     0.622713    Uiso  ? B
   B14        1.0     0.961762     0.377287     0.448119    Uiso  ? B
   B15        1.0     0.448119     0.961762     0.377287    Uiso  ? B
   B16        1.0     0.622713     0.948119     0.538238    Uiso  ? B
   B17        1.0     0.051881     0.038238     0.877287    Uiso  ? B
   B18        1.0     0.127287     0.211762     0.801881    Uiso  ? B
   B19        1.0     0.301881     0.372713     0.788238    Uiso  ? B
   B20        1.0     0.377287     0.448119     0.961762    Uiso  ? B
   B21        1.0     0.538238     0.622713     0.948119    Uiso  ? B
   B22        1.0     0.711762     0.698119     0.872713    Uiso  ? B
   B23        1.0     0.872713     0.711762     0.698119    Uiso  ? B
   B24        1.0     0.698119     0.872713     0.711762    Uiso  ? B
   H1         1.0     0.612971     0.271831     0.057048    Uiso  ? H
   H2         1.0     0.420721     0.323939     0.059231    Uiso  ? H
   H3         1.0     0.670721     0.190769     0.073939    Uiso  ? H
   H4         1.0     0.942952     0.112971     0.228169    Uiso  ? H
   H5         1.0     0.862971     0.192952     0.021831    Uiso  ? H
   H6         1.0     0.926061     0.170721     0.309231    Uiso  ? H
   H7         1.0     0.916085     0.016403     0.165410    Uiso  ? H
   H8         1.0     0.766403     0.166085     0.084590    Uiso  ? H
   H9         1.0     0.057048     0.612971     0.271831    Uiso  ? H
   H10        1.0     0.059231     0.420721     0.323939    Uiso  ? H
   H11        1.0     0.516403     0.334590     0.083915    Uiso  ? H
   H12        1.0     0.666085     0.415410     0.233597    Uiso  ? H
   H13        1.0     0.978169     0.362971     0.307048    Uiso  ? H
   H14        1.0     0.692952     0.478169     0.137029    Uiso  ? H
   H15        1.0     0.676061     0.559231     0.079279    Uiso  ? H
   H16        1.0     0.690769     0.426061     0.329279    Uiso  ? H
   H17        1.0     0.073939     0.670721     0.190769    Uiso  ? H
   H18        1.0     0.228169     0.942952     0.112971    Uiso  ? H
   H19        1.0     0.021831     0.862971     0.192952    Uiso  ? H
   H20        1.0     0.309231     0.926061     0.170721    Uiso  ? H
   H21        1.0     0.084590     0.766403     0.166085    Uiso  ? H
   H22        1.0     0.165410     0.916085     0.016403    Uiso  ? H
   H23        1.0     0.333915     0.915410     0.266403    Uiso  ? H
   H24        1.0     0.940769     0.920721     0.176061    Uiso  ? H
   H25        1.0     0.271831     0.057048     0.612971    Uiso  ? H
   H26        1.0     0.323939     0.059231     0.420721    Uiso  ? H
   H27        1.0     0.334590     0.083915     0.516403    Uiso  ? H
   H28        1.0     0.415410     0.233597     0.666085    Uiso  ? H
   H29        1.0     0.915410     0.266403     0.333915    Uiso  ? H
   H30        1.0     0.083915     0.516403     0.334590    Uiso  ? H
   H31        1.0     0.233597     0.666085     0.415410    Uiso  ? H
   H32        1.0     0.771831     0.442952     0.387029    Uiso  ? H
   H33        1.0     0.807048     0.521831     0.637029    Uiso  ? H
   H34        1.0     0.823939     0.440769     0.579279    Uiso  ? H
   H35        1.0     0.834590     0.416085     0.483597    Uiso  ? H
   H36        1.0     0.983597     0.665410     0.583915    Uiso  ? H
   H37        1.0     0.137029     0.692952     0.478169    Uiso  ? H
   H38        1.0     0.307048     0.978169     0.362971    Uiso  ? H
   H39        1.0     0.079279     0.676061     0.559231    Uiso  ? H
   H40        1.0     0.329279     0.690769     0.426061    Uiso  ? H
   H41        1.0     0.637029     0.807048     0.521831    Uiso  ? H
   H42        1.0     0.387029     0.771831     0.442952    Uiso  ? H
   H43        1.0     0.579279     0.823939     0.440769    Uiso  ? H
   H44        1.0     0.483597     0.834590     0.416085    Uiso  ? H
   H45        1.0     0.583915     0.983597     0.665410    Uiso  ? H
   H46        1.0     0.887029     0.728169     0.557048    Uiso  ? H
   H47        1.0     0.829279     0.809231     0.573939    Uiso  ? H
   H48        1.0     0.733597     0.833915     0.584590    Uiso  ? H
   H49        1.0     0.190769     0.073939     0.670721    Uiso  ? H
   H50        1.0     0.112971     0.228169     0.942952    Uiso  ? H
   H51        1.0     0.192952     0.021831     0.862971    Uiso  ? H
   H52        1.0     0.170721     0.309231     0.926061    Uiso  ? H
   H53        1.0     0.016403     0.165410     0.916085    Uiso  ? H
   H54        1.0     0.166085     0.084590     0.766403    Uiso  ? H
   H55        1.0     0.362971     0.307048     0.978169    Uiso  ? H
   H56        1.0     0.478169     0.137029     0.692952    Uiso  ? H
   H57        1.0     0.559231     0.079279     0.676061    Uiso  ? H
   H58        1.0     0.426061     0.329279     0.690769    Uiso  ? H
   H59        1.0     0.920721     0.176061     0.940769    Uiso  ? H
   H60        1.0     0.266403     0.333915     0.915410    Uiso  ? H
   H61        1.0     0.442952     0.387029     0.771831    Uiso  ? H
   H62        1.0     0.521831     0.637029     0.807048    Uiso  ? H
   H63        1.0     0.440769     0.579279     0.823939    Uiso  ? H
   H64        1.0     0.416085     0.483597     0.834590    Uiso  ? H
   H65        1.0     0.665410     0.583915     0.983597    Uiso  ? H
   H66        1.0     0.728169     0.557048     0.887029    Uiso  ? H
   H67        1.0     0.809231     0.573939     0.829279    Uiso  ? H
   H68        1.0     0.833915     0.584590     0.733597    Uiso  ? H
   H69        1.0     0.176061     0.940769     0.920721    Uiso  ? H
   H70        1.0     0.557048     0.887029     0.728169    Uiso  ? H
   H71        1.0     0.573939     0.829279     0.809231    Uiso  ? H
   H72        1.0     0.584590     0.733597     0.833915    Uiso  ? H
