
#======================================================================
# CRYSTAL DATA
#----------------------------------------------------------------------
data_VESTA_phase_1

_chemical_name_common                  'POSCAR file written by OVITO Basic 3.8'
_cell_length_a                         23.768400
_cell_length_b                         23.768400
_cell_length_c                         23.768400
_cell_angle_alpha                      90.000000
_cell_angle_beta                       90.000000
_cell_angle_gamma                      90.000000
_cell_volume                           13427.645079
_space_group_name_H-M_alt              'P 1'
_space_group_IT_number                 1

loop_
_space_group_symop_operation_xyz
   'x, y, z'

loop_
   _atom_site_label
   _atom_site_occupancy
   _atom_site_fract_x
   _atom_site_fract_y
   _atom_site_fract_z
   _atom_site_adp_type
   _atom_site_U_iso_or_equiv
   _atom_site_type_symbol
   C1         1.0     0.614768     0.273931     0.103244    Uiso  ? C
   C2         1.0     0.648899     0.228527     0.113266    Uiso  ? C
   C3         1.0     0.635051     0.235459     0.211624    Uiso  ? C
   C4         1.0     0.665063     0.311972     0.300728    Uiso  ? C
   C5         1.0     0.656759     0.213425     0.262356    Uiso  ? C
   C6         1.0     0.617334     0.291016     0.214249    Uiso  ? C
   C7         1.0     0.636494     0.332641     0.253165    Uiso  ? C
   C8         1.0     0.660035     0.206302     0.165303    Uiso  ? C
   C9         1.0     0.864768     0.146756     0.023931    Uiso  ? C
   C10        1.0     0.896756     0.114768     0.226069    Uiso  ? C
   C11        1.0     0.886734     0.148899     0.271473    Uiso  ? C
   C12        1.0     0.878861     0.015902     0.136887    Uiso  ? C
   C13        1.0     0.765902     0.128861     0.113113    Uiso  ? C
   C14        1.0     0.817904     0.101671     0.109251    Uiso  ? C
   C15        1.0     0.851671     0.067904     0.140749    Uiso  ? C
   C16        1.0     0.694172     0.168686     0.249182    Uiso  ? C
   C17        1.0     0.750818     0.194172     0.331314    Uiso  ? C
   C18        1.0     0.668686     0.250818     0.305828    Uiso  ? C
   C19        1.0     0.788376     0.135051     0.264541    Uiso  ? C
   C20        1.0     0.699272     0.165063     0.188028    Uiso  ? C
   C21        1.0     0.737644     0.156759     0.286575    Uiso  ? C
   C22        1.0     0.867334     0.035751     0.041016    Uiso  ? C
   C23        1.0     0.785751     0.117334     0.208984    Uiso  ? C
   C24        1.0     0.746835     0.136494     0.167359    Uiso  ? C
   C25        1.0     0.834697     0.160035     0.293698    Uiso  ? C
   C26        1.0     0.103244     0.614768     0.273931    Uiso  ? C
   C27        1.0     0.113266     0.648899     0.228527    Uiso  ? C
   C28        1.0     0.211624     0.635051     0.235459    Uiso  ? C
   C29        1.0     0.300728     0.665063     0.311972    Uiso  ? C
   C30        1.0     0.262356     0.656759     0.213425    Uiso  ? C
   C31        1.0     0.214249     0.617334     0.291016    Uiso  ? C
   C32        1.0     0.253165     0.636494     0.332641    Uiso  ? C
   C33        1.0     0.165303     0.660035     0.206302    Uiso  ? C
   C34        1.0     0.646756     0.476069     0.135232    Uiso  ? C
   C35        1.0     0.636734     0.521473     0.101101    Uiso  ? C
   C36        1.0     0.398899     0.363266     0.021473    Uiso  ? C
   C37        1.0     0.515902     0.363113     0.121139    Uiso  ? C
   C38        1.0     0.628861     0.386887     0.234098    Uiso  ? C
   C39        1.0     0.601671     0.390749     0.182096    Uiso  ? C
   C40        1.0     0.567904     0.359251     0.148329    Uiso  ? C
   C41        1.0     0.500818     0.581314     0.055828    Uiso  ? C
   C42        1.0     0.444172     0.499182     0.081314    Uiso  ? C
   C43        1.0     0.538376     0.514541     0.114949    Uiso  ? C
   C44        1.0     0.385051     0.461624     0.014541    Uiso  ? C
   C45        1.0     0.449272     0.438028     0.084937    Uiso  ? C
   C46        1.0     0.561972     0.584937     0.050728    Uiso  ? C
   C47        1.0     0.463425     0.593241     0.012356    Uiso  ? C
   C48        1.0     0.487644     0.536575     0.093241    Uiso  ? C
   C49        1.0     0.406759     0.512356     0.036575    Uiso  ? C
   C50        1.0     0.535751     0.458984     0.132666    Uiso  ? C
   C51        1.0     0.496835     0.417359     0.113506    Uiso  ? C
   C52        1.0     0.584697     0.543698     0.089965    Uiso  ? C
   C53        1.0     0.410035     0.415303     0.043698    Uiso  ? C
   C54        1.0     0.582641     0.613506     0.003165    Uiso  ? C
   C55        1.0     0.226069     0.896756     0.114768    Uiso  ? C
   C56        1.0     0.023931     0.864768     0.146756    Uiso  ? C
   C57        1.0     0.271473     0.886734     0.148899    Uiso  ? C
   C58        1.0     0.113113     0.765902     0.128861    Uiso  ? C
   C59        1.0     0.136887     0.878861     0.015902    Uiso  ? C
   C60        1.0     0.140749     0.851671     0.067904    Uiso  ? C
   C61        1.0     0.109251     0.817904     0.101671    Uiso  ? C
   C62        1.0     0.305828     0.668686     0.250818    Uiso  ? C
   C63        1.0     0.249182     0.694172     0.168686    Uiso  ? C
   C64        1.0     0.331314     0.750818     0.194172    Uiso  ? C
   C65        1.0     0.264541     0.788376     0.135051    Uiso  ? C
   C66        1.0     0.188028     0.699272     0.165063    Uiso  ? C
   C67        1.0     0.286575     0.737644     0.156759    Uiso  ? C
   C68        1.0     0.208984     0.785751     0.117334    Uiso  ? C
   C69        1.0     0.041016     0.867334     0.035751    Uiso  ? C
   C70        1.0     0.167359     0.746835     0.136494    Uiso  ? C
   C71        1.0     0.293698     0.834697     0.160035    Uiso  ? C
   C72        1.0     0.371139     0.886887     0.265902    Uiso  ? C
   C73        1.0     0.398329     0.890749     0.317904    Uiso  ? C
   C74        1.0     0.364949     0.735459     0.288376    Uiso  ? C
   C75        1.0     0.334937     0.811972     0.199272    Uiso  ? C
   C76        1.0     0.343241     0.713425     0.237644    Uiso  ? C
   C77        1.0     0.382666     0.791016     0.285751    Uiso  ? C
   C78        1.0     0.363506     0.832641     0.246835    Uiso  ? C
   C79        1.0     0.886494     0.996835     0.082640    Uiso  ? C
   C80        1.0     0.978527     0.898899     0.136734    Uiso  ? C
   C81        1.0     0.918686     0.944172     0.000818    Uiso  ? C
   C82        1.0     0.985459     0.885051     0.038376    Uiso  ? C
   C83        1.0     0.915063     0.949272     0.061972    Uiso  ? C
   C84        1.0     0.956302     0.910035     0.084697    Uiso  ? C
   C85        1.0     0.273931     0.103244     0.614768    Uiso  ? C
   C86        1.0     0.228527     0.113266     0.648899    Uiso  ? C
   C87        1.0     0.235459     0.211624     0.635051    Uiso  ? C
   C88        1.0     0.311972     0.300728     0.665063    Uiso  ? C
   C89        1.0     0.213425     0.262356     0.656759    Uiso  ? C
   C90        1.0     0.291016     0.214249     0.617334    Uiso  ? C
   C91        1.0     0.332641     0.253165     0.636494    Uiso  ? C
   C92        1.0     0.206302     0.165303     0.660035    Uiso  ? C
   C93        1.0     0.476069     0.135232     0.646756    Uiso  ? C
   C94        1.0     0.363266     0.021473     0.398899    Uiso  ? C
   C95        1.0     0.521473     0.101101     0.636734    Uiso  ? C
   C96        1.0     0.386887     0.234098     0.628861    Uiso  ? C
   C97        1.0     0.363113     0.121139     0.515902    Uiso  ? C
   C98        1.0     0.359251     0.148329     0.567904    Uiso  ? C
   C99        1.0     0.390749     0.182096     0.601671    Uiso  ? C
   C100       1.0     0.581314     0.055828     0.500818    Uiso  ? C
   C101       1.0     0.499182     0.081314     0.444172    Uiso  ? C
   C102       1.0     0.461624     0.014541     0.385051    Uiso  ? C
   C103       1.0     0.514541     0.114949     0.538376    Uiso  ? C
   C104       1.0     0.584937     0.050728     0.561972    Uiso  ? C
   C105       1.0     0.438028     0.084937     0.449272    Uiso  ? C
   C106       1.0     0.536575     0.093241     0.487644    Uiso  ? C
   C107       1.0     0.512356     0.036575     0.406759    Uiso  ? C
   C108       1.0     0.593241     0.012356     0.463425    Uiso  ? C
   C109       1.0     0.458984     0.132666     0.535751    Uiso  ? C
   C110       1.0     0.417359     0.113506     0.496835    Uiso  ? C
   C111       1.0     0.415303     0.043698     0.410035    Uiso  ? C
   C112       1.0     0.543698     0.089965     0.584697    Uiso  ? C
   C113       1.0     0.613506     0.003165     0.582641    Uiso  ? C
   C114       1.0     0.886887     0.265902     0.371139    Uiso  ? C
   C115       1.0     0.890749     0.317904     0.398329    Uiso  ? C
   C116       1.0     0.735459     0.288376     0.364949    Uiso  ? C
   C117       1.0     0.811972     0.199272     0.334937    Uiso  ? C
   C118       1.0     0.713425     0.237644     0.343241    Uiso  ? C
   C119       1.0     0.791016     0.285751     0.382666    Uiso  ? C
   C120       1.0     0.832641     0.246835     0.363506    Uiso  ? C
   C121       1.0     0.135232     0.646756     0.476069    Uiso  ? C
   C122       1.0     0.101101     0.636734     0.521473    Uiso  ? C
   C123       1.0     0.021473     0.398899     0.363266    Uiso  ? C
   C124       1.0     0.121139     0.515902     0.363113    Uiso  ? C
   C125       1.0     0.234098     0.628861     0.386887    Uiso  ? C
   C126       1.0     0.182096     0.601671     0.390749    Uiso  ? C
   C127       1.0     0.148329     0.567904     0.359251    Uiso  ? C
   C128       1.0     0.081314     0.444172     0.499182    Uiso  ? C
   C129       1.0     0.055828     0.500818     0.581314    Uiso  ? C
   C130       1.0     0.114949     0.538376     0.514541    Uiso  ? C
   C131       1.0     0.014541     0.385051     0.461624    Uiso  ? C
   C132       1.0     0.050728     0.561972     0.584937    Uiso  ? C
   C133       1.0     0.084937     0.449272     0.438028    Uiso  ? C
   C134       1.0     0.036575     0.406759     0.512356    Uiso  ? C
   C135       1.0     0.012356     0.463425     0.593241    Uiso  ? C
   C136       1.0     0.093241     0.487644     0.536575    Uiso  ? C
   C137       1.0     0.132666     0.535751     0.458984    Uiso  ? C
   C138       1.0     0.113506     0.496835     0.417359    Uiso  ? C
   C139       1.0     0.089965     0.584697     0.543698    Uiso  ? C
   C140       1.0     0.043698     0.410035     0.415303    Uiso  ? C
   C141       1.0     0.003165     0.582641     0.613506    Uiso  ? C
   C142       1.0     0.706302     0.334697     0.339965    Uiso  ? C
   C143       1.0     0.773931     0.396756     0.385232    Uiso  ? C
   C144       1.0     0.853244     0.523931     0.635232    Uiso  ? C
   C145       1.0     0.976069     0.364768     0.353244    Uiso  ? C
   C146       1.0     0.728527     0.386734     0.351101    Uiso  ? C
   C147       1.0     0.863266     0.478527     0.601101    Uiso  ? C
   C148       1.0     0.984098     0.636887     0.621139    Uiso  ? C
   C149       1.0     0.863113     0.378861     0.484098    Uiso  ? C
   C150       1.0     0.859251     0.351671     0.432096    Uiso  ? C
   C151       1.0     0.932096     0.640749     0.648329    Uiso  ? C
   C152       1.0     0.999182     0.418686     0.555828    Uiso  ? C
   C153       1.0     0.961624     0.485459     0.614949    Uiso  ? C
   C154       1.0     0.938028     0.415063     0.550728    Uiso  ? C
   C155       1.0     0.964249     0.541016     0.632666    Uiso  ? C
   C156       1.0     0.958984     0.367334     0.464249    Uiso  ? C
   C157       1.0     0.917359     0.386494     0.503165    Uiso  ? C
   C158       1.0     0.915303     0.456302     0.589965    Uiso  ? C
   C159       1.0     0.339965     0.706302     0.334697    Uiso  ? C
   C160       1.0     0.353244     0.976069     0.364768    Uiso  ? C
   C161       1.0     0.385232     0.773931     0.396756    Uiso  ? C
   C162       1.0     0.635232     0.853244     0.523931    Uiso  ? C
   C163       1.0     0.351101     0.728527     0.386734    Uiso  ? C
   C164       1.0     0.601101     0.863266     0.478527    Uiso  ? C
   C165       1.0     0.484098     0.863113     0.378861    Uiso  ? C
   C166       1.0     0.621139     0.984098     0.636887    Uiso  ? C
   C167       1.0     0.432096     0.859251     0.351671    Uiso  ? C
   C168       1.0     0.648329     0.932096     0.640749    Uiso  ? C
   C169       1.0     0.555828     0.999182     0.418686    Uiso  ? C
   C170       1.0     0.614949     0.961624     0.485459    Uiso  ? C
   C171       1.0     0.550728     0.938028     0.415063    Uiso  ? C
   C172       1.0     0.464249     0.958984     0.367334    Uiso  ? C
   C173       1.0     0.632666     0.964249     0.541016    Uiso  ? C
   C174       1.0     0.503165     0.917359     0.386494    Uiso  ? C
   C175       1.0     0.589965     0.915303     0.456302    Uiso  ? C
   C176       1.0     0.885232     0.726069     0.603244    Uiso  ? C
   C177       1.0     0.851101     0.771473     0.613266    Uiso  ? C
   C178       1.0     0.734098     0.871139     0.613113    Uiso  ? C
   C179       1.0     0.682096     0.898329     0.609251    Uiso  ? C
   C180       1.0     0.839965     0.793698     0.665303    Uiso  ? C
   C181       1.0     0.146756     0.023931     0.864768    Uiso  ? C
   C182       1.0     0.114768     0.226069     0.896756    Uiso  ? C
   C183       1.0     0.148899     0.271473     0.886734    Uiso  ? C
   C184       1.0     0.015902     0.136887     0.878861    Uiso  ? C
   C185       1.0     0.128861     0.113113     0.765902    Uiso  ? C
   C186       1.0     0.101671     0.109251     0.817904    Uiso  ? C
   C187       1.0     0.067904     0.140749     0.851671    Uiso  ? C
   C188       1.0     0.194172     0.331314     0.750818    Uiso  ? C
   C189       1.0     0.250818     0.305828     0.668686    Uiso  ? C
   C190       1.0     0.168686     0.249182     0.694172    Uiso  ? C
   C191       1.0     0.135051     0.264541     0.788376    Uiso  ? C
   C192       1.0     0.165063     0.188028     0.699272    Uiso  ? C
   C193       1.0     0.156759     0.286575     0.737644    Uiso  ? C
   C194       1.0     0.035751     0.041016     0.867334    Uiso  ? C
   C195       1.0     0.117334     0.208984     0.785751    Uiso  ? C
   C196       1.0     0.136494     0.167359     0.746835    Uiso  ? C
   C197       1.0     0.160035     0.293698     0.834697    Uiso  ? C
   C198       1.0     0.996835     0.082640     0.886494    Uiso  ? C
   C199       1.0     0.898899     0.136734     0.978527    Uiso  ? C
   C200       1.0     0.944172     0.000818     0.918686    Uiso  ? C
   C201       1.0     0.885051     0.038376     0.985459    Uiso  ? C
   C202       1.0     0.949272     0.061972     0.915063    Uiso  ? C
   C203       1.0     0.910035     0.084697     0.956302    Uiso  ? C
   C204       1.0     0.265902     0.371139     0.886887    Uiso  ? C
   C205       1.0     0.317904     0.398329     0.890749    Uiso  ? C
   C206       1.0     0.288376     0.364949     0.735459    Uiso  ? C
   C207       1.0     0.199272     0.334937     0.811972    Uiso  ? C
   C208       1.0     0.237644     0.343241     0.713425    Uiso  ? C
   C209       1.0     0.285751     0.382666     0.791016    Uiso  ? C
   C210       1.0     0.246835     0.363506     0.832641    Uiso  ? C
   C211       1.0     0.334697     0.339965     0.706302    Uiso  ? C
   C212       1.0     0.364768     0.353244     0.976069    Uiso  ? C
   C213       1.0     0.523931     0.635232     0.853244    Uiso  ? C
   C214       1.0     0.396756     0.385232     0.773931    Uiso  ? C
   C215       1.0     0.478527     0.601101     0.863266    Uiso  ? C
   C216       1.0     0.386734     0.351101     0.728527    Uiso  ? C
   C217       1.0     0.378861     0.484098     0.863113    Uiso  ? C
   C218       1.0     0.636887     0.621139     0.984098    Uiso  ? C
   C219       1.0     0.640749     0.648329     0.932096    Uiso  ? C
   C220       1.0     0.351671     0.432096     0.859251    Uiso  ? C
   C221       1.0     0.418686     0.555828     0.999182    Uiso  ? C
   C222       1.0     0.485459     0.614949     0.961624    Uiso  ? C
   C223       1.0     0.415063     0.550728     0.938028    Uiso  ? C
   C224       1.0     0.367334     0.464249     0.958984    Uiso  ? C
   C225       1.0     0.541016     0.632666     0.964249    Uiso  ? C
   C226       1.0     0.386494     0.503165     0.917359    Uiso  ? C
   C227       1.0     0.456302     0.589965     0.915303    Uiso  ? C
   C228       1.0     0.726069     0.603244     0.885232    Uiso  ? C
   C229       1.0     0.771473     0.613266     0.851101    Uiso  ? C
   C230       1.0     0.871139     0.613113     0.734098    Uiso  ? C
   C231       1.0     0.898329     0.609251     0.682096    Uiso  ? C
   C232       1.0     0.793698     0.665303     0.839965    Uiso  ? C
   C233       1.0     0.082640     0.886494     0.996835    Uiso  ? C
   C234       1.0     0.136734     0.978527     0.898899    Uiso  ? C
   C235       1.0     0.000818     0.918686     0.944172    Uiso  ? C
   C236       1.0     0.038376     0.985459     0.885051    Uiso  ? C
   C237       1.0     0.061972     0.915063     0.949272    Uiso  ? C
   C238       1.0     0.084697     0.956302     0.910035    Uiso  ? C
   C239       1.0     0.603244     0.885232     0.726069    Uiso  ? C
   C240       1.0     0.613266     0.851101     0.771473    Uiso  ? C
   C241       1.0     0.613113     0.734098     0.871139    Uiso  ? C
   C242       1.0     0.609251     0.682096     0.898329    Uiso  ? C
   C243       1.0     0.665303     0.839965     0.793698    Uiso  ? C
   C244       1.0     0.805828     0.831314     0.749182    Uiso  ? C
   C245       1.0     0.749182     0.805828     0.831314    Uiso  ? C
   C246       1.0     0.831314     0.749182     0.805828    Uiso  ? C
   C247       1.0     0.764541     0.711624     0.864949    Uiso  ? C
   C248       1.0     0.864949     0.764541     0.711624    Uiso  ? C
   C249       1.0     0.711624     0.864949     0.764541    Uiso  ? C
   C250       1.0     0.688028     0.800728     0.834937    Uiso  ? C
   C251       1.0     0.834937     0.688028     0.800728    Uiso  ? C
   C252       1.0     0.800728     0.834937     0.688028    Uiso  ? C
   C253       1.0     0.963425     0.906759     0.987644    Uiso  ? C
   C254       1.0     0.843241     0.786575     0.762356    Uiso  ? C
   C255       1.0     0.987644     0.963425     0.906759    Uiso  ? C
   C256       1.0     0.762356     0.843241     0.786575    Uiso  ? C
   C257       1.0     0.906759     0.987644     0.963425    Uiso  ? C
   C258       1.0     0.786575     0.762356     0.843241    Uiso  ? C
   C259       1.0     0.708984     0.714249     0.882666    Uiso  ? C
   C260       1.0     0.882666     0.708984     0.714249    Uiso  ? C
   C261       1.0     0.714249     0.882666     0.708984    Uiso  ? C
   C262       1.0     0.667359     0.753165     0.863506    Uiso  ? C
   C263       1.0     0.863506     0.667359     0.753165    Uiso  ? C
   C264       1.0     0.753165     0.863506     0.667359    Uiso  ? C
   B1         1.0     0.601336     0.307373     0.156793    Uiso  ? B
   B2         1.0     0.851336     0.093207     0.057373    Uiso  ? B
   B3         1.0     0.843207     0.101336     0.192627    Uiso  ? B
   B4         1.0     0.156793     0.601336     0.307373    Uiso  ? B
   B5         1.0     0.593207     0.442627     0.148664    Uiso  ? B
   B6         1.0     0.192627     0.843207     0.101336    Uiso  ? B
   B7         1.0     0.057373     0.851336     0.093207    Uiso  ? B
   B8         1.0     0.307373     0.156793     0.601336    Uiso  ? B
   B9         1.0     0.442627     0.148664     0.593207    Uiso  ? B
   B10        1.0     0.148664     0.593207     0.442627    Uiso  ? B
   B11        1.0     0.807373     0.343207     0.398664    Uiso  ? B
   B12        1.0     0.906793     0.557373     0.648664    Uiso  ? B
   B13        1.0     0.942627     0.351336     0.406793    Uiso  ? B
   B14        1.0     0.406793     0.942627     0.351336    Uiso  ? B
   B15        1.0     0.398664     0.807373     0.343207    Uiso  ? B
   B16        1.0     0.648664     0.906793     0.557373    Uiso  ? B
   B17        1.0     0.898664     0.692627     0.656793    Uiso  ? B
   B18        1.0     0.093207     0.057373     0.851336    Uiso  ? B
   B19        1.0     0.101336     0.192627     0.843207    Uiso  ? B
   B20        1.0     0.351336     0.406793     0.942627    Uiso  ? B
   B21        1.0     0.557373     0.648664     0.906793    Uiso  ? B
   B22        1.0     0.343207     0.398664     0.807373    Uiso  ? B
   B23        1.0     0.692627     0.656793     0.898664    Uiso  ? B
   B24        1.0     0.656793     0.898664     0.692627    Uiso  ? B
   H1         1.0     0.598725     0.284764     0.058821    Uiso  ? H
   H2         1.0     0.418856     0.326975     0.041072    Uiso  ? H
   H3         1.0     0.492290     0.326171     0.107821    Uiso  ? H
   H4         1.0     0.668856     0.208928     0.076975    Uiso  ? H
   H5         1.0     0.941179     0.098725     0.215236    Uiso  ? H
   H6         1.0     0.848725     0.191179     0.034764    Uiso  ? H
   H7         1.0     0.923025     0.168856     0.291072    Uiso  ? H
   H8         1.0     0.742290     0.142179     0.076171    Uiso  ? H
   H9         1.0     0.058821     0.598725     0.284764    Uiso  ? H
   H10        1.0     0.041072     0.418856     0.326975    Uiso  ? H
   H11        1.0     0.107821     0.492290     0.326171    Uiso  ? H
   H12        1.0     0.642179     0.423829     0.257710    Uiso  ? H
   H13        1.0     0.965236     0.348725     0.308821    Uiso  ? H
   H14        1.0     0.691179     0.465236     0.151275    Uiso  ? H
   H15        1.0     0.673025     0.541072     0.081144    Uiso  ? H
   H16        1.0     0.708928     0.423025     0.331144    Uiso  ? H
   H17        1.0     0.673829     0.607821     0.007710    Uiso  ? H
   H18        1.0     0.076975     0.668856     0.208928    Uiso  ? H
   H19        1.0     0.215236     0.941179     0.098725    Uiso  ? H
   H20        1.0     0.034764     0.848725     0.191179    Uiso  ? H
   H21        1.0     0.291072     0.923025     0.168856    Uiso  ? H
   H22        1.0     0.076171     0.742290     0.142179    Uiso  ? H
   H23        1.0     0.357821     0.923829     0.242290    Uiso  ? H
   H24        1.0     0.892179     0.992290     0.173829    Uiso  ? H
   H25        1.0     0.958928     0.918856     0.173025    Uiso  ? H
   H26        1.0     0.284764     0.058821     0.598725    Uiso  ? H
   H27        1.0     0.326975     0.041072     0.418856    Uiso  ? H
   H28        1.0     0.326171     0.107821     0.492290    Uiso  ? H
   H29        1.0     0.423829     0.257710     0.642179    Uiso  ? H
   H30        1.0     0.923829     0.242290     0.357821    Uiso  ? H
   H31        1.0     0.257710     0.642179     0.423829    Uiso  ? H
   H32        1.0     0.784764     0.441179     0.401275    Uiso  ? H
   H33        1.0     0.808821     0.534764     0.651275    Uiso  ? H
   H34        1.0     0.826975     0.458928     0.581144    Uiso  ? H
   H35        1.0     0.826171     0.392179     0.507710    Uiso  ? H
   H36        1.0     0.151275     0.691179     0.465236    Uiso  ? H
   H37        1.0     0.308821     0.965236     0.348725    Uiso  ? H
   H38        1.0     0.081144     0.673025     0.541072    Uiso  ? H
   H39        1.0     0.331144     0.708928     0.423025    Uiso  ? H
   H40        1.0     0.007710     0.673829     0.607821    Uiso  ? H
   H41        1.0     0.651275     0.808821     0.534764    Uiso  ? H
   H42        1.0     0.401275     0.784764     0.441179    Uiso  ? H
   H43        1.0     0.581144     0.826975     0.458928    Uiso  ? H
   H44        1.0     0.507710     0.826171     0.392179    Uiso  ? H
   H45        1.0     0.901275     0.715236     0.558821    Uiso  ? H
   H46        1.0     0.831144     0.791072     0.576975    Uiso  ? H
   H47        1.0     0.757710     0.857821     0.576171    Uiso  ? H
   H48        1.0     0.208928     0.076975     0.668856    Uiso  ? H
   H49        1.0     0.098725     0.215236     0.941179    Uiso  ? H
   H50        1.0     0.191179     0.034764     0.848725    Uiso  ? H
   H51        1.0     0.168856     0.291072     0.923025    Uiso  ? H
   H52        1.0     0.142179     0.076171     0.742290    Uiso  ? H
   H53        1.0     0.348725     0.308821     0.965236    Uiso  ? H
   H54        1.0     0.465236     0.151275     0.691179    Uiso  ? H
   H55        1.0     0.541072     0.081144     0.673025    Uiso  ? H
   H56        1.0     0.423025     0.331144     0.708928    Uiso  ? H
   H57        1.0     0.607821     0.007710     0.673829    Uiso  ? H
   H58        1.0     0.992290     0.173829     0.892179    Uiso  ? H
   H59        1.0     0.918856     0.173025     0.958928    Uiso  ? H
   H60        1.0     0.242290     0.357821     0.923829    Uiso  ? H
   H61        1.0     0.441179     0.401275     0.784764    Uiso  ? H
   H62        1.0     0.534764     0.651275     0.808821    Uiso  ? H
   H63        1.0     0.458928     0.581144     0.826975    Uiso  ? H
   H64        1.0     0.392179     0.507710     0.826171    Uiso  ? H
   H65        1.0     0.715236     0.558821     0.901275    Uiso  ? H
   H66        1.0     0.791072     0.576975     0.831144    Uiso  ? H
   H67        1.0     0.857821     0.576171     0.757710    Uiso  ? H
   H68        1.0     0.173829     0.892179     0.992290    Uiso  ? H
   H69        1.0     0.173025     0.958928     0.918856    Uiso  ? H
   H70        1.0     0.558821     0.901275     0.715236    Uiso  ? H
   H71        1.0     0.576975     0.831144     0.791072    Uiso  ? H
   H72        1.0     0.576171     0.757710     0.857821    Uiso  ? H
