
#======================================================================
# CRYSTAL DATA
#----------------------------------------------------------------------
data_VESTA_phase_1

_chemical_name_common                  'POSCAR file written by OVITO Basic 3.8'
_cell_length_a                         23.803301
_cell_length_b                         23.803301
_cell_length_c                         23.803301
_cell_angle_alpha                      90.000000
_cell_angle_beta                       90.000000
_cell_angle_gamma                      90.000000
_cell_volume                           13486.881991
_space_group_name_H-M_alt              'P 1'
_space_group_IT_number                 1

loop_
_space_group_symop_operation_xyz
   'x, y, z'

loop_
   _atom_site_label
   _atom_site_occupancy
   _atom_site_fract_x
   _atom_site_fract_y
   _atom_site_fract_z
   _atom_site_adp_type
   _atom_site_U_iso_or_equiv
   _atom_site_type_symbol
   C1         1.0     0.600251     0.254862     0.106589    Uiso  ? C
   C2         1.0     0.632862     0.207584     0.110256    Uiso  ? C
   C3         1.0     0.661660     0.212659     0.256765    Uiso  ? C
   C4         1.0     0.636440     0.290126     0.192968    Uiso  ? C
   C5         1.0     0.649882     0.330546     0.234031    Uiso  ? C
   C6         1.0     0.603450     0.298185     0.144822    Uiso  ? C
   C7         1.0     0.671205     0.312905     0.285498    Uiso  ? C
   C8         1.0     0.853333     0.142344     0.002308    Uiso  ? C
   C9         1.0     0.892856     0.099350     0.243322    Uiso  ? C
   C10        1.0     0.888388     0.130949     0.291209    Uiso  ? C
   C11        1.0     0.891397     0.031967     0.133678    Uiso  ? C
   C12        1.0     0.784435     0.140931     0.111317    Uiso  ? C
   C13        1.0     0.832917     0.109941     0.100095    Uiso  ? C
   C14        1.0     0.861101     0.080827     0.144992    Uiso  ? C
   C15        1.0     0.703937     0.173942     0.240646    Uiso  ? C
   C16        1.0     0.757368     0.201367     0.323809    Uiso  ? C
   C17        1.0     0.674835     0.255439     0.295745    Uiso  ? C
   C18        1.0     0.715207     0.171521     0.183280    Uiso  ? C
   C19        1.0     0.742008     0.159869     0.283947    Uiso  ? C
   C20        1.0     0.888566     0.055790     0.038077    Uiso  ? C
   C21        1.0     0.807352     0.136669     0.207075    Uiso  ? C
   C22        1.0     0.901681     0.015019     0.078897    Uiso  ? C
   C23        1.0     0.767083     0.150788     0.166084    Uiso  ? C
   C24        1.0     0.673903     0.196734     0.150190    Uiso  ? C
   C25        1.0     0.848215     0.171694     0.302228    Uiso  ? C
   C26        1.0     0.856124     0.104361     0.045878    Uiso  ? C
   C27        1.0     0.855407     0.103479     0.199400    Uiso  ? C
   C28        1.0     0.814660     0.212519     0.327602    Uiso  ? C
   C29        1.0     0.110433     0.598715     0.254605    Uiso  ? C
   C30        1.0     0.114631     0.630791     0.207014    Uiso  ? C
   C31        1.0     0.260891     0.661688     0.214275    Uiso  ? C
   C32        1.0     0.196071     0.635833     0.290811    Uiso  ? C
   C33        1.0     0.236279     0.650052     0.331826    Uiso  ? C
   C34        1.0     0.148003     0.602621     0.298454    Uiso  ? C
   C35        1.0     0.640375     0.495380     0.151223    Uiso  ? C
   C36        1.0     0.636383     0.543209     0.119478    Uiso  ? C
   C37        1.0     0.381335     0.362982     0.039637    Uiso  ? C
   C38        1.0     0.531705     0.363835     0.108837    Uiso  ? C
   C39        1.0     0.639001     0.385442     0.217830    Uiso  ? C
   C40        1.0     0.608397     0.397078     0.169209    Uiso  ? C
   C41        1.0     0.580143     0.352395     0.139824    Uiso  ? C
   C42        1.0     0.506400     0.576061     0.047147    Uiso  ? C
   C43        1.0     0.452179     0.493285     0.074142    Uiso  ? C
   C44        1.0     0.463208     0.435906     0.077070    Uiso  ? C
   C45        1.0     0.563874     0.579453     0.036795    Uiso  ? C
   C46        1.0     0.463577     0.589939     0.008466    Uiso  ? C
   C47        1.0     0.490241     0.536463     0.088575    Uiso  ? C
   C48        1.0     0.410623     0.509327     0.034632    Uiso  ? C
   C49        1.0     0.554871     0.459513     0.113479    Uiso  ? C
   C50        1.0     0.514665     0.418656     0.098785    Uiso  ? C
   C51        1.0     0.596720     0.554147     0.078217    Uiso  ? C
   C52        1.0     0.422307     0.402804     0.051178    Uiso  ? C
   C53        1.0     0.602785     0.451602     0.146824    Uiso  ? C
   C54        1.0     0.696046     0.345818     0.327153    Uiso  ? C
   C55        1.0     0.287782     0.671902     0.314964    Uiso  ? C
   C56        1.0     0.245115     0.892311     0.099997    Uiso  ? C
   C57        1.0     0.004590     0.848385     0.139676    Uiso  ? C
   C58        1.0     0.292348     0.888916     0.132705    Uiso  ? C
   C59        1.0     0.114573     0.781325     0.139421    Uiso  ? C
   C60        1.0     0.136530     0.888747     0.030758    Uiso  ? C
   C61        1.0     0.147755     0.858615     0.079760    Uiso  ? C
   C62        1.0     0.102987     0.829601     0.108268    Uiso  ? C
   C63        1.0     0.298892     0.675653     0.257661    Uiso  ? C
   C64        1.0     0.244744     0.703553     0.175139    Uiso  ? C
   C65        1.0     0.326209     0.758761     0.204069    Uiso  ? C
   C66        1.0     0.187258     0.713712     0.171563    Uiso  ? C
   C67        1.0     0.287492     0.742518     0.161833    Uiso  ? C
   C68        1.0     0.209895     0.806151     0.136718    Uiso  ? C
   C69        1.0     0.040776     0.884405     0.053586    Uiso  ? C
   C70        1.0     0.169483     0.765132     0.150274    Uiso  ? C
   C71        1.0     0.081781     0.898331     0.013290    Uiso  ? C
   C72        1.0     0.303278     0.849126     0.173867    Uiso  ? C
   C73        1.0     0.154428     0.672019     0.196431    Uiso  ? C
   C74        1.0     0.201879     0.853999     0.103323    Uiso  ? C
   C75        1.0     0.048495     0.851946     0.102139    Uiso  ? C
   C76        1.0     0.328526     0.816153     0.215254    Uiso  ? C
   C77        1.0     0.358177     0.888303     0.284665    Uiso  ? C
   C78        1.0     0.340333     0.715547     0.242227    Uiso  ? C
   C79        1.0     0.363423     0.792564     0.307437    Uiso  ? C
   C80        1.0     0.349000     0.833465     0.267182    Uiso  ? C
   C81        1.0     0.957056     0.880507     0.135114    Uiso  ? C
   C82        1.0     0.925435     0.952108     0.004381    Uiso  ? C
   C83        1.0     0.922161     0.963065     0.061739    Uiso  ? C
   C84        1.0     0.946689     0.921491     0.095002    Uiso  ? C
   C85        1.0     0.248824     0.106183     0.598157    Uiso  ? C
   C86        1.0     0.198243     0.107318     0.625112    Uiso  ? C
   C87        1.0     0.213310     0.261582     0.654284    Uiso  ? C
   C88        1.0     0.281888     0.189938     0.646785    Uiso  ? C
   C89        1.0     0.324353     0.230262     0.658502    Uiso  ? C
   C90        1.0     0.291110     0.144229     0.609510    Uiso  ? C
   C91        1.0     0.488495     0.144458     0.651332    Uiso  ? C
   C92        1.0     0.358021     0.044198     0.386681    Uiso  ? C
   C93        1.0     0.537374     0.114798     0.645327    Uiso  ? C
   C94        1.0     0.379191     0.211482     0.651705    Uiso  ? C
   C95        1.0     0.358509     0.112171     0.537100    Uiso  ? C
   C96        1.0     0.346179     0.139290     0.587679    Uiso  ? C
   C97        1.0     0.390886     0.164475     0.619230    Uiso  ? C
   C98        1.0     0.571825     0.050491     0.511132    Uiso  ? C
   C99        1.0     0.488223     0.078018     0.458357    Uiso  ? C
   C100       1.0     0.576047     0.038000     0.568036    Uiso  ? C
   C101       1.0     0.430824     0.080350     0.469276    Uiso  ? C
   C102       1.0     0.531179     0.091629     0.496953    Uiso  ? C
   C103       1.0     0.504665     0.040078     0.415518    Uiso  ? C
   C104       1.0     0.586075     0.013511     0.466961    Uiso  ? C
   C105       1.0     0.453676     0.111306     0.563329    Uiso  ? C
   C106       1.0     0.413363     0.100456     0.521336    Uiso  ? C
   C107       1.0     0.397994     0.055370     0.427595    Uiso  ? C
   C108       1.0     0.549638     0.077017     0.602783    Uiso  ? C
   C109       1.0     0.445127     0.141698     0.613134    Uiso  ? C
   C110       1.0     0.886190     0.281140     0.359775    Uiso  ? C
   C111       1.0     0.897361     0.329709     0.390593    Uiso  ? C
   C112       1.0     0.713951     0.239378     0.337666    Uiso  ? C
   C113       1.0     0.790450     0.304305     0.363446    Uiso  ? C
   C114       1.0     0.831481     0.264082     0.349319    Uiso  ? C
   C115       1.0     0.151267     0.640844     0.495653    Uiso  ? C
   C116       1.0     0.119128     0.636648     0.543202    Uiso  ? C
   C117       1.0     0.042956     0.381093     0.362442    Uiso  ? C
   C118       1.0     0.111459     0.531241     0.364088    Uiso  ? C
   C119       1.0     0.219266     0.639512     0.386538    Uiso  ? C
   C120       1.0     0.170763     0.608579     0.397712    Uiso  ? C
   C121       1.0     0.142283     0.579801     0.352799    Uiso  ? C
   C122       1.0     0.075833     0.451876     0.493301    Uiso  ? C
   C123       1.0     0.047682     0.506014     0.575739    Uiso  ? C
   C124       1.0     0.036894     0.563406     0.579001    Uiso  ? C
   C125       1.0     0.079263     0.462855     0.435957    Uiso  ? C
   C126       1.0     0.036420     0.410090     0.508998    Uiso  ? C
   C127       1.0     0.009181     0.462941     0.589325    Uiso  ? C
   C128       1.0     0.089601     0.490111     0.536552    Uiso  ? C
   C129       1.0     0.114698     0.554873     0.459713    Uiso  ? C
   C130       1.0     0.100816     0.514407     0.418844    Uiso  ? C
   C131       1.0     0.078247     0.596541     0.553959    Uiso  ? C
   C132       1.0     0.053940     0.421825     0.402635    Uiso  ? C
   C133       1.0     0.147729     0.603041     0.451979    Uiso  ? C
   C134       1.0     0.754192     0.389926     0.400463    Uiso  ? C
   C135       1.0     0.858700     0.504343     0.650815    Uiso  ? C
   C136       1.0     0.995289     0.349133     0.358237    Uiso  ? C
   C137       1.0     0.706613     0.385642     0.368368    Uiso  ? C
   C138       1.0     0.862784     0.456699     0.618786    Uiso  ? C
   C139       1.0     0.968372     0.635602     0.610108    Uiso  ? C
   C140       1.0     0.863810     0.388958     0.467974    Uiso  ? C
   C141       1.0     0.852458     0.358178     0.419397    Uiso  ? C
   C142       1.0     0.919771     0.647100     0.640765    Uiso  ? C
   C143       1.0     0.993258     0.423827     0.547343    Uiso  ? C
   C144       1.0     0.935868     0.420646     0.536463    Uiso  ? C
   C145       1.0     0.944642     0.540032     0.614011    Uiso  ? C
   C146       1.0     0.959416     0.385828     0.444181    Uiso  ? C
   C147       1.0     0.985227     0.580749     0.600046    Uiso  ? C
   C148       1.0     0.918602     0.399492     0.484792    Uiso  ? C
   C149       1.0     0.902734     0.445793     0.577776    Uiso  ? C
   C150       1.0     0.798097     0.352417     0.396604    Uiso  ? C
   C151       1.0     0.896496     0.548000     0.647011    Uiso  ? C
   C152       1.0     0.951629     0.352759     0.396046    Uiso  ? C
   C153       1.0     0.328582     0.697399     0.348467    Uiso  ? C
   C154       1.0     0.388712     0.899774     0.333374    Uiso  ? C
   C155       1.0     0.354633     0.996928     0.354013    Uiso  ? C
   C156       1.0     0.400770     0.756591     0.393033    Uiso  ? C
   C157       1.0     0.650732     0.862438     0.504361    Uiso  ? C
   C158       1.0     0.369413     0.708537     0.388533    Uiso  ? C
   C159       1.0     0.618359     0.867472     0.457034    Uiso  ? C
   C160       1.0     0.466910     0.867092     0.392052    Uiso  ? C
   C161       1.0     0.609947     0.969107     0.638038    Uiso  ? C
   C162       1.0     0.418330     0.855188     0.361528    Uiso  ? C
   C163       1.0     0.641090     0.920632     0.648450    Uiso  ? C
   C164       1.0     0.544140     0.997528     0.427858    Uiso  ? C
   C165       1.0     0.534457     0.940001     0.423592    Uiso  ? C
   C166       1.0     0.441408     0.962293     0.389838    Uiso  ? C
   C167       1.0     0.613768     0.947413     0.541991    Uiso  ? C
   C168       1.0     0.482866     0.922093     0.402801    Uiso  ? C
   C169       1.0     0.599040     0.986685     0.583647    Uiso  ? C
   C170       1.0     0.576778     0.907191     0.447460    Uiso  ? C
   C171       1.0     0.393247     0.953926     0.356929    Uiso  ? C
   C172       1.0     0.396349     0.800528     0.355632    Uiso  ? C
   C173       1.0     0.646960     0.899204     0.548903    Uiso  ? C
   C174       1.0     0.900556     0.744991     0.608065    Uiso  ? C
   C175       1.0     0.868615     0.792694     0.612126    Uiso  ? C
   C176       1.0     0.718240     0.861574     0.614204    Uiso  ? C
   C177       1.0     0.669753     0.892623     0.603193    Uiso  ? C
   C178       1.0     0.827933     0.803870     0.652330    Uiso  ? C
   C179       1.0     0.896903     0.701461     0.646021    Uiso  ? C
   C180       1.0     0.311293     0.285670     0.671608    Uiso  ? C
   C181       1.0     0.143822     0.001108     0.847137    Uiso  ? C
   C182       1.0     0.102789     0.242706     0.889129    Uiso  ? C
   C183       1.0     0.133046     0.291444     0.884815    Uiso  ? C
   C184       1.0     0.035443     0.133881     0.886475    Uiso  ? C
   C185       1.0     0.145066     0.110979     0.780073    Uiso  ? C
   C186       1.0     0.113319     0.099716     0.828105    Uiso  ? C
   C187       1.0     0.084691     0.144688     0.856595    Uiso  ? C
   C188       1.0     0.202862     0.324897     0.753557    Uiso  ? C
   C189       1.0     0.254974     0.301315     0.669055    Uiso  ? C
   C190       1.0     0.179889     0.239851     0.698670    Uiso  ? C
   C191       1.0     0.175167     0.182384     0.710524    Uiso  ? C
   C192       1.0     0.164997     0.281399     0.738731    Uiso  ? C
   C193       1.0     0.057919     0.038004     0.882901    Uiso  ? C
   C194       1.0     0.143396     0.206082     0.805139    Uiso  ? C
   C195       1.0     0.017912     0.079309     0.896858    Uiso  ? C
   C196       1.0     0.156453     0.165923     0.763744    Uiso  ? C
   C197       1.0     0.186797     0.144790     0.667641    Uiso  ? C
   C198       1.0     0.173289     0.303652     0.844552    Uiso  ? C
   C199       1.0     0.106638     0.045322     0.850551    Uiso  ? C
   C200       1.0     0.108325     0.198735     0.851932    Uiso  ? C
   C201       1.0     0.213144     0.330371     0.810865    Uiso  ? C
   C202       1.0     0.345466     0.326616     0.696049    Uiso  ? C
   C203       1.0     0.885475     0.137738     0.954782    Uiso  ? C
   C204       1.0     0.954358     0.005732     0.921847    Uiso  ? C
   C205       1.0     0.966100     0.062922     0.918395    Uiso  ? C
   C206       1.0     0.925511     0.096837     0.943720    Uiso  ? C
   C207       1.0     0.281079     0.363302     0.882794    Uiso  ? C
   C208       1.0     0.330101     0.393209     0.894350    Uiso  ? C
   C209       1.0     0.238614     0.342064     0.709323    Uiso  ? C
   C210       1.0     0.303264     0.369000     0.786933    Uiso  ? C
   C211       1.0     0.263720     0.353738     0.828044    Uiso  ? C
   C212       1.0     0.349313     0.359515     0.991944    Uiso  ? C
   C213       1.0     0.505984     0.652701     0.858808    Uiso  ? C
   C214       1.0     0.391374     0.400627     0.751969    Uiso  ? C
   C215       1.0     0.458238     0.620780     0.862364    Uiso  ? C
   C216       1.0     0.386661     0.366726     0.705650    Uiso  ? C
   C217       1.0     0.390866     0.469730     0.861450    Uiso  ? C
   C218       1.0     0.636571     0.610981     0.968940    Uiso  ? C
   C219       1.0     0.648400     0.641990     0.920633    Uiso  ? C
   C220       1.0     0.359148     0.421871     0.849737    Uiso  ? C
   C221       1.0     0.424639     0.548037     0.991886    Uiso  ? C
   C222       1.0     0.421903     0.537685     0.934374    Uiso  ? C
   C223       1.0     0.386915     0.445349     0.956876    Uiso  ? C
   C224       1.0     0.541135     0.615133     0.944675    Uiso  ? C
   C225       1.0     0.401006     0.486175     0.916443    Uiso  ? C
   C226       1.0     0.581598     0.600850     0.985401    Uiso  ? C
   C227       1.0     0.447160     0.579361     0.901823    Uiso  ? C
   C228       1.0     0.353263     0.397715     0.948659    Uiso  ? C
   C229       1.0     0.549412     0.648437     0.896814    Uiso  ? C
   C230       1.0     0.352882     0.399621     0.795170    Uiso  ? C
   C231       1.0     0.746439     0.609500     0.901644    Uiso  ? C
   C232       1.0     0.794009     0.613623     0.869491    Uiso  ? C
   C233       1.0     0.860474     0.614007     0.718335    Uiso  ? C
   C234       1.0     0.891059     0.602423     0.669701    Uiso  ? C
   C235       1.0     0.804804     0.653591     0.828456    Uiso  ? C
   C236       1.0     0.702894     0.647454     0.898102    Uiso  ? C
   C237       1.0     0.138709     0.953571     0.879165    Uiso  ? C
   C238       1.0     0.007508     0.922779     0.950302    Uiso  ? C
   C239       1.0     0.064823     0.919062     0.961383    Uiso  ? C
   C240       1.0     0.098365     0.943509     0.919998    Uiso  ? C
   C241       1.0     0.609205     0.901016     0.746362    Uiso  ? C
   C242       1.0     0.613855     0.869452     0.794215    Uiso  ? C
   C243       1.0     0.615576     0.719783     0.861487    Uiso  ? C
   C244       1.0     0.603878     0.671062     0.891833    Uiso  ? C
   C245       1.0     0.654380     0.829069     0.805077    Uiso  ? C
   C246       1.0     0.646865     0.897406     0.702578    Uiso  ? C
   C247       1.0     0.798404     0.826177     0.743070    Uiso  ? C
   C248       1.0     0.745080     0.798729     0.826293    Uiso  ? C
   C249       1.0     0.826816     0.743917     0.797427    Uiso  ? C
   C250       1.0     0.687746     0.787983     0.830171    Uiso  ? C
   C251       1.0     0.829697     0.686469     0.786793    Uiso  ? C
   C252       1.0     0.787056     0.829330     0.685763    Uiso  ? C
   C253       1.0     0.964140     0.909679     0.988644    Uiso  ? C
   C254       1.0     0.840284     0.786832     0.758703    Uiso  ? C
   C255       1.0     0.992158     0.962046     0.908248    Uiso  ? C
   C256       1.0     0.760615     0.840308     0.786591    Uiso  ? C
   C257       1.0     0.912308     0.990602     0.961174    Uiso  ? C
   C258       1.0     0.788155     0.760169     0.839695    Uiso  ? C
   C259       1.0     0.711097     0.695836     0.865495    Uiso  ? C
   C260       1.0     0.863968     0.709492     0.694194    Uiso  ? C
   C261       1.0     0.695099     0.864434     0.710017    Uiso  ? C
   C262       1.0     0.670468     0.736456     0.851477    Uiso  ? C
   C263       1.0     0.850349     0.668903     0.735032    Uiso  ? C
   C264       1.0     0.735369     0.850768     0.668863    Uiso  ? C
   B1         1.0     0.656463     0.232439     0.198564    Uiso  ? B
   B2         1.0     0.800569     0.155113     0.265143    Uiso  ? B
   B3         1.0     0.202445     0.655593     0.233105    Uiso  ? B
   B4         1.0     0.548637     0.517447     0.094400    Uiso  ? B
   B5         1.0     0.405713     0.451074     0.014943    Uiso  ? B
   B6         1.0     0.267629     0.800672     0.156541    Uiso  ? B
   B7         1.0     0.345080     0.734439     0.300763    Uiso  ? B
   B8         1.0     0.983125     0.904209     0.047099    Uiso  ? B
   B9         1.0     0.446599     0.019950     0.410095    Uiso  ? B
   B10        1.0     0.512134     0.094196     0.555646    Uiso  ? B
   B11        1.0     0.732750     0.297851     0.343651    Uiso  ? B
   B12        1.0     0.095108     0.548534     0.517474    Uiso  ? B
   B13        1.0     0.017322     0.405009     0.450551    Uiso  ? B
   B14        1.0     0.950807     0.482188     0.594643    Uiso  ? B
   B15        1.0     0.593124     0.954799     0.484710    Uiso  ? B
   B16        1.0     0.222639     0.199220     0.667391    Uiso  ? B
   B17        1.0     0.159383     0.264582     0.797689    Uiso  ? B
   B18        1.0     0.907956     0.049130     0.980262    Uiso  ? B
   B19        1.0     0.296761     0.347072     0.730074    Uiso  ? B
   B20        1.0     0.483240     0.595817     0.950286    Uiso  ? B
   B21        1.0     0.050810     0.980446     0.902807    Uiso  ? B
   B22        1.0     0.768752     0.701872     0.845480    Uiso  ? B
   B23        1.0     0.844989     0.767466     0.700325    Uiso  ? B
   B24        1.0     0.702029     0.845595     0.767946    Uiso  ? B
   H1         1.0     0.572055     0.258745     0.070742    Uiso  ? H
   H2         1.0     0.374522     0.330859     0.071630    Uiso  ? H
   H3         1.0     0.626548     0.175378     0.078217    Uiso  ? H
   H4         1.0     0.505865     0.329277     0.093590    Uiso  ? H
   H5         1.0     0.928753     0.071204     0.239475    Uiso  ? H
   H6         1.0     0.825867     0.178766     0.006198    Uiso  ? H
   H7         1.0     0.919877     0.123961     0.323820    Uiso  ? H
   H8         1.0     0.905768     0.005656     0.168256    Uiso  ? H
   H9         1.0     0.758756     0.156219     0.076659    Uiso  ? H
   H10        1.0     0.991394     0.321102     0.322258    Uiso  ? H
   H11        1.0     0.074649     0.570394     0.258286    Uiso  ? H
   H12        1.0     0.083159     0.623881     0.174366    Uiso  ? H
   H13        1.0     0.075377     0.374467     0.330675    Uiso  ? H
   H14        1.0     0.096846     0.505089     0.329491    Uiso  ? H
   H15        1.0     0.653264     0.419835     0.244465    Uiso  ? H
   H16        1.0     0.676036     0.491448     0.179662    Uiso  ? H
   H17        1.0     0.667911     0.575745     0.126693    Uiso  ? H
   H18        1.0     0.241175     0.928007     0.071608    Uiso  ? H
   H19        1.0     0.008206     0.820372     0.175705    Uiso  ? H
   H20        1.0     0.324447     0.921059     0.126344    Uiso  ? H
   H21        1.0     0.080152     0.754944     0.154064    Uiso  ? H
   H22        1.0     0.171217     0.903669     0.004893    Uiso  ? H
   H23        1.0     0.318687     0.992767     0.325979    Uiso  ? H
   H24        1.0     0.342668     0.922834     0.258947    Uiso  ? H
   H25        1.0     0.924303     0.873889     0.166532    Uiso  ? H
   H26        1.0     0.256052     0.072448     0.568144    Uiso  ? H
   H27        1.0     0.166015     0.076902     0.613484    Uiso  ? H
   H28        1.0     0.325660     0.076129     0.380562    Uiso  ? H
   H29        1.0     0.324733     0.101715     0.508076    Uiso  ? H
   H30        1.0     0.920862     0.255182     0.345007    Uiso  ? H
   H31        1.0     0.245213     0.654323     0.421204    Uiso  ? H
   H32        1.0     0.757820     0.425718     0.428772    Uiso  ? H
   H33        1.0     0.673924     0.417076     0.375261    Uiso  ? H
   H34        1.0     0.831105     0.424226     0.625581    Uiso  ? H
   H35        1.0     0.829248     0.403589     0.494163    Uiso  ? H
   H36        1.0     0.179331     0.676810     0.491860    Uiso  ? H
   H37        1.0     0.125693     0.668363     0.575687    Uiso  ? H
   H38        1.0     0.428927     0.760555     0.428907    Uiso  ? H
   H39        1.0     0.625269     0.836739     0.423710    Uiso  ? H
   H40        1.0     0.376646     0.675891     0.419948    Uiso  ? H
   H41        1.0     0.493707     0.832841     0.406310    Uiso  ? H
   H42        1.0     0.679152     0.826679     0.507219    Uiso  ? H
   H43        1.0     0.928585     0.740944     0.572090    Uiso  ? H
   H44        1.0     0.875235     0.824988     0.580232    Uiso  ? H
   H45        1.0     0.994491     0.670098     0.595199    Uiso  ? H
   H46        1.0     0.744186     0.846975     0.579452    Uiso  ? H
   H47        1.0     0.074402     0.238319     0.924766    Uiso  ? H
   H48        1.0     0.180014     0.004422     0.819323    Uiso  ? H
   H49        1.0     0.125211     0.323749     0.916415    Uiso  ? H
   H50        1.0     0.009336     0.168695     0.900652    Uiso  ? H
   H51        1.0     0.159674     0.076224     0.754107    Uiso  ? H
   H52        1.0     0.320928     0.323858     0.987700    Uiso  ? H
   H53        1.0     0.413451     0.236166     0.669303    Uiso  ? H
   H54        1.0     0.483483     0.169982     0.688986    Uiso  ? H
   H55        1.0     0.569610     0.120805     0.677391    Uiso  ? H
   H56        1.0     0.879625     0.169787     0.922496    Uiso  ? H
   H57        1.0     0.255186     0.348179     0.917345    Uiso  ? H
   H58        1.0     0.428180     0.427644     0.755396    Uiso  ? H
   H59        1.0     0.418888     0.371076     0.673313    Uiso  ? H
   H60        1.0     0.425874     0.627992     0.830643    Uiso  ? H
   H61        1.0     0.406446     0.495601     0.827021    Uiso  ? H
   H62        1.0     0.822857     0.508226     0.679025    Uiso  ? H
   H63        1.0     0.742534     0.573529     0.929685    Uiso  ? H
   H64        1.0     0.826478     0.581884     0.876121    Uiso  ? H
   H65        1.0     0.845713     0.579574     0.744621    Uiso  ? H
   H66        1.0     0.670898     0.595827     0.995144    Uiso  ? H
   H67        1.0     0.169878     0.920546     0.872637    Uiso  ? H
   H68        1.0     0.510099     0.681204     0.823227    Uiso  ? H
   H69        1.0     0.572952     0.928678     0.742461    Uiso  ? H
   H70        1.0     0.582229     0.876039     0.826779    Uiso  ? H
   H71        1.0     0.581188     0.746123     0.846733    Uiso  ? H
   H72        1.0     0.595334     0.994645     0.673068    Uiso  ? H
