
#======================================================================
# CRYSTAL DATA
#----------------------------------------------------------------------
data_VESTA_phase_1

_chemical_name_common                  'POSCAR file written by OVITO Basic 3.8'
_cell_length_a                         24.603201
_cell_length_b                         24.603201
_cell_length_c                         24.603201
_cell_angle_alpha                      90.000000
_cell_angle_beta                       90.000000
_cell_angle_gamma                      90.000000
_cell_volume                           14892.747949
_space_group_name_H-M_alt              'P 1'
_space_group_IT_number                 1

loop_
_space_group_symop_operation_xyz
   'x, y, z'

loop_
   _atom_site_label
   _atom_site_occupancy
   _atom_site_fract_x
   _atom_site_fract_y
   _atom_site_fract_z
   _atom_site_adp_type
   _atom_site_U_iso_or_equiv
   _atom_site_type_symbol
   C1         1.0     0.640726     0.218975     0.114527    Uiso  ? C
   C2         1.0     0.660368     0.242828     0.205963    Uiso  ? C
   C3         1.0     0.711407     0.169293     0.169861    Uiso  ? C
   C4         1.0     0.670542     0.208952     0.160918    Uiso  ? C
   C5         1.0     0.856258     0.138118     0.013269    Uiso  ? C
   C6         1.0     0.887918     0.106524     0.236852    Uiso  ? C
   C7         1.0     0.881237     0.030228     0.138203    Uiso  ? C
   C8         1.0     0.780032     0.131402     0.111877    Uiso  ? C
   C9         1.0     0.827458     0.102719     0.102423    Uiso  ? C
   C10        1.0     0.852548     0.077654     0.147685    Uiso  ? C
   C11        1.0     0.885176     0.049971     0.043461    Uiso  ? C
   C12        1.0     0.799794     0.135431     0.206607    Uiso  ? C
   C13        1.0     0.893737     0.012400     0.085889    Uiso  ? C
   C14        1.0     0.762219     0.143964     0.164174    Uiso  ? C
   C15        1.0     0.854266     0.097332     0.052321    Uiso  ? C
   C16        1.0     0.847154     0.104500     0.197776    Uiso  ? C
   C17        1.0     0.390842     0.364560     0.031308    Uiso  ? C
   C18        1.0     0.410527     0.455987     0.007438    Uiso  ? C
   C19        1.0     0.461569     0.419843     0.080955    Uiso  ? C
   C20        1.0     0.420689     0.410933     0.041307    Uiso  ? C
   C21        1.0     0.606519     0.263139     0.112079    Uiso  ? C
   C22        1.0     0.635426     0.293380     0.200205    Uiso  ? C
   C23        1.0     0.604492     0.302211     0.152847    Uiso  ? C
   C24        1.0     0.643954     0.335810     0.237784    Uiso  ? C
   C25        1.0     0.638097     0.486719     0.143763    Uiso  ? C
   C26        1.0     0.530215     0.361780     0.118765    Uiso  ? C
   C27        1.0     0.631382     0.388106     0.219978    Uiso  ? C
   C28        1.0     0.602700     0.397562     0.172552    Uiso  ? C
   C29        1.0     0.577640     0.352299     0.147457    Uiso  ? C
   C30        1.0     0.549956     0.456523     0.114831    Uiso  ? C
   C31        1.0     0.512387     0.414095     0.106265    Uiso  ? C
   C32        1.0     0.597313     0.447666     0.145748    Uiso  ? C
   C33        1.0     0.113532     0.640708     0.218427    Uiso  ? C
   C34        1.0     0.205091     0.659906     0.242177    Uiso  ? C
   C35        1.0     0.169054     0.711401     0.168920    Uiso  ? C
   C36        1.0     0.160032     0.670375     0.208403    Uiso  ? C
   C37        1.0     0.474975     0.571976     0.004645    Uiso  ? C
   C38        1.0     0.495789     0.525237     0.072290    Uiso  ? C
   C39        1.0     0.428151     0.504425     0.025552    Uiso  ? C
   C40        1.0     0.253568     0.677481     0.224063    Uiso  ? C
   C41        1.0     0.274467     0.745471     0.177840    Uiso  ? C
   C42        1.0     0.321361     0.724258     0.245197    Uiso  ? C
   C43        1.0     0.635662     0.530898     0.109586    Uiso  ? C
   C44        1.0     0.544205     0.507090     0.089928    Uiso  ? C
   C45        1.0     0.580419     0.580509     0.038844    Uiso  ? C
   C46        1.0     0.589282     0.540920     0.079769    Uiso  ? C
   C47        1.0     0.236441     0.887907     0.106465    Uiso  ? C
   C48        1.0     0.012809     0.856597     0.137840    Uiso  ? C
   C49        1.0     0.111252     0.780179     0.131077    Uiso  ? C
   C50        1.0     0.137841     0.881423     0.030024    Uiso  ? C
   C51        1.0     0.147248     0.852699     0.077444    Uiso  ? C
   C52        1.0     0.101919     0.827661     0.102447    Uiso  ? C
   C53        1.0     0.205986     0.799834     0.135292    Uiso  ? C
   C54        1.0     0.043089     0.885563     0.049741    Uiso  ? C
   C55        1.0     0.163500     0.762281     0.143700    Uiso  ? C
   C56        1.0     0.085559     0.894070     0.012202    Uiso  ? C
   C57        1.0     0.197288     0.847221     0.104362    Uiso  ? C
   C58        1.0     0.051874     0.854577     0.097066    Uiso  ? C
   C59        1.0     0.280555     0.885386     0.140740    Uiso  ? C
   C60        1.0     0.256496     0.793994     0.160306    Uiso  ? C
   C61        1.0     0.290495     0.838949     0.170529    Uiso  ? C
   C62        1.0     0.330268     0.829828     0.211263    Uiso  ? C
   C63        1.0     0.968678     0.890844     0.135421    Uiso  ? C
   C64        1.0     0.992555     0.910533     0.043995    Uiso  ? C
   C65        1.0     0.919040     0.961580     0.080138    Uiso  ? C
   C66        1.0     0.958684     0.920695     0.089049    Uiso  ? C
   C67        1.0     0.374114     0.033956     0.379619    Uiso  ? C
   C68        1.0     0.461333     0.003981     0.413120    Uiso  ? C
   C69        1.0     0.409395     0.079620     0.459658    Uiso  ? C
   C70        1.0     0.415798     0.040911     0.416924    Uiso  ? C
   C71        1.0     0.677967     0.224712     0.254408    Uiso  ? C
   C72        1.0     0.745581     0.177961     0.275276    Uiso  ? C
   C73        1.0     0.724712     0.245576     0.322030    Uiso  ? C
   C74        1.0     0.513444     0.056578     0.492504    Uiso  ? C
   C75        1.0     0.507507     0.013411     0.443450    Uiso  ? C
   C76        1.0     0.556553     0.007493     0.486604    Uiso  ? C
   C77        1.0     0.885464     0.140724     0.281021    Uiso  ? C
   C78        1.0     0.794029     0.160366     0.257163    Uiso  ? C
   C79        1.0     0.839071     0.170535     0.291045    Uiso  ? C
   C80        1.0     0.830122     0.211394     0.330709    Uiso  ? C
   C81        1.0     0.030896     0.390399     0.364332    Uiso  ? C
   C82        1.0     0.007086     0.410061     0.455790    Uiso  ? C
   C83        1.0     0.080502     0.461145     0.419570    Uiso  ? C
   C84        1.0     0.040915     0.420218     0.410712    Uiso  ? C
   C85        1.0     0.669288     0.330122     0.288593    Uiso  ? C
   C86        1.0     0.708948     0.339066     0.329457    Uiso  ? C
   C87        1.0     0.742826     0.294022     0.339629    Uiso  ? C
   C88        1.0     0.718971     0.385458     0.359270    Uiso  ? C
   C89        1.0     0.888105     0.280009     0.368617    Uiso  ? C
   C90        1.0     0.897560     0.327435     0.397297    Uiso  ? C
   C91        1.0     0.793378     0.299781     0.364572    Uiso  ? C
   C92        1.0     0.835809     0.262203     0.356044    Uiso  ? C
   C93        1.0     0.763136     0.387908     0.393476    Uiso  ? C
   C94        1.0     0.986718     0.356221     0.361900    Uiso  ? C
   C95        1.0     0.861779     0.381224     0.469780    Uiso  ? C
   C96        1.0     0.852298     0.352531     0.422356    Uiso  ? C
   C97        1.0     0.956521     0.385156     0.450039    Uiso  ? C
   C98        1.0     0.914093     0.393723     0.487608    Uiso  ? C
   C99        1.0     0.802209     0.347140     0.395505    Uiso  ? C
   C100       1.0     0.947664     0.354238     0.402683    Uiso  ? C
   C101       1.0     0.110932     0.606416     0.262529    Uiso  ? C
   C102       1.0     0.199173     0.634879     0.292690    Uiso  ? C
   C103       1.0     0.151681     0.604195     0.301604    Uiso  ? C
   C104       1.0     0.236748     0.643203     0.335094    Uiso  ? C
   C105       1.0     0.143080     0.637752     0.486319    Uiso  ? C
   C106       1.0     0.117645     0.529972     0.361335    Uiso  ? C
   C107       1.0     0.218995     0.630881     0.387428    Uiso  ? C
   C108       1.0     0.171486     0.602425     0.396971    Uiso  ? C
   C109       1.0     0.146255     0.577413     0.351750    Uiso  ? C
   C110       1.0     0.114077     0.549642     0.456145    Uiso  ? C
   C111       1.0     0.105503     0.512081     0.413714    Uiso  ? C
   C112       1.0     0.144875     0.597042     0.447178    Uiso  ? C
   C113       1.0     0.287500     0.668418     0.329256    Uiso  ? C
   C114       1.0     0.338018     0.742592     0.293909    Uiso  ? C
   C115       1.0     0.327572     0.708577     0.338743    Uiso  ? C
   C116       1.0     0.356202     0.718729     0.385760    Uiso  ? C
   C117       1.0     0.372546     0.887157     0.277921    Uiso  ? C
   C118       1.0     0.401196     0.896649     0.325453    Uiso  ? C
   C119       1.0     0.362866     0.793113     0.299943    Uiso  ? C
   C120       1.0     0.356444     0.835271     0.261687    Uiso  ? C
   C121       1.0     0.372368     0.989187     0.346558    Uiso  ? C
   C122       1.0     0.389744     0.763235     0.388925    Uiso  ? C
   C123       1.0     0.468146     0.857478     0.383315    Uiso  ? C
   C124       1.0     0.421644     0.850675     0.352950    Uiso  ? C
   C125       1.0     0.455340     0.953903     0.385574    Uiso  ? C
   C126       1.0     0.489349     0.908364     0.395569    Uiso  ? C
   C127       1.0     0.410172     0.947405     0.350419    Uiso  ? C
   C128       1.0     0.392886     0.801833     0.347809    Uiso  ? C
   C129       1.0     0.620414     0.874103     0.466098    Uiso  ? C
   C130       1.0     0.586903     0.961340     0.496053    Uiso  ? C
   C131       1.0     0.540314     0.909318     0.420485    Uiso  ? C
   C132       1.0     0.583087     0.915770     0.459155    Uiso  ? C
   C133       1.0     0.218816     0.114241     0.643787    Uiso  ? C
   C134       1.0     0.242632     0.206108     0.661960    Uiso  ? C
   C135       1.0     0.168473     0.170728     0.712485    Uiso  ? C
   C136       1.0     0.208639     0.161257     0.672412    Uiso  ? C
   C137       1.0     0.263319     0.111099     0.610238    Uiso  ? C
   C138       1.0     0.293151     0.200098     0.637106    Uiso  ? C
   C139       1.0     0.301892     0.152236     0.607087    Uiso  ? C
   C140       1.0     0.335290     0.238376     0.643516    Uiso  ? C
   C141       1.0     0.489230     0.153545     0.627598    Uiso  ? C
   C142       1.0     0.387186     0.222163     0.627420    Uiso  ? C
   C143       1.0     0.357535     0.116779     0.531811    Uiso  ? C
   C144       1.0     0.350732     0.147120     0.578325    Uiso  ? C
   C145       1.0     0.396696     0.174631     0.598775    Uiso  ? C
   C146       1.0     0.453952     0.114513     0.544626    Uiso  ? C
   C147       1.0     0.408420     0.104522     0.510620    Uiso  ? C
   C148       1.0     0.447455     0.149680     0.589783    Uiso  ? C
   C149       1.0     0.533998     0.120479     0.625874    Uiso  ? C
   C150       1.0     0.504013     0.086937     0.538661    Uiso  ? C
   C151       1.0     0.579614     0.040369     0.590651    Uiso  ? C
   C152       1.0     0.540929     0.083136     0.584218    Uiso  ? C
   C153       1.0     0.025237     0.427703     0.504204    Uiso  ? C
   C154       1.0     0.004419     0.474443     0.571839    Uiso  ? C
   C155       1.0     0.071966     0.495353     0.525015    Uiso  ? C
   C156       1.0     0.224268     0.254814     0.678608    Uiso  ? C
   C157       1.0     0.177493     0.275926     0.746409    Uiso  ? C
   C158       1.0     0.245463     0.322183     0.725504    Uiso  ? C
   C159       1.0     0.329817     0.288799     0.669687    Uiso  ? C
   C160       1.0     0.338941     0.329524     0.709475    Uiso  ? C
   C161       1.0     0.293980     0.339728     0.743475    Uiso  ? C
   C162       1.0     0.385370     0.359305     0.719411    Uiso  ? C
   C163       1.0     0.864559     0.468678     0.609158    Uiso  ? C
   C164       1.0     0.955982     0.492556     0.589464    Uiso  ? C
   C165       1.0     0.919844     0.419031     0.538427    Uiso  ? C
   C166       1.0     0.910931     0.458680     0.579307    Uiso  ? C
   C167       1.0     0.109091     0.635255     0.530651    Uiso  ? C
   C168       1.0     0.089400     0.543824     0.506817    Uiso  ? C
   C169       1.0     0.038550     0.579886     0.580506    Uiso  ? C
   C170       1.0     0.079310     0.588857     0.540741    Uiso  ? C
   C171       1.0     0.862143     0.512810     0.643404    Uiso  ? C
   C172       1.0     0.969949     0.637845     0.618556    Uiso  ? C
   C173       1.0     0.922539     0.647245     0.647300    Uiso  ? C
   C174       1.0     0.950240     0.543093     0.614433    Uiso  ? C
   C175       1.0     0.987774     0.585564     0.605914    Uiso  ? C
   C176       1.0     0.902911     0.551879     0.645412    Uiso  ? C
   C177       1.0     0.893520     0.736442     0.612094    Uiso  ? C
   C178       1.0     0.895617     0.697284     0.652780    Uiso  ? C
   C179       1.0     0.868909     0.611258     0.719817    Uiso  ? C
   C180       1.0     0.897530     0.601919     0.672331    Uiso  ? C
   C181       1.0     0.856289     0.663502     0.737725    Uiso  ? C
   C182       1.0     0.864705     0.705991     0.700182    Uiso  ? C
   C183       1.0     0.653509     0.872400     0.510841    Uiso  ? C
   C184       1.0     0.616768     0.968215     0.642529    Uiso  ? C
   C185       1.0     0.647119     0.921707     0.649329    Uiso  ? C
   C186       1.0     0.614487     0.955369     0.546113    Uiso  ? C
   C187       1.0     0.604519     0.989400     0.591637    Uiso  ? C
   C188       1.0     0.649659     0.910215     0.552610    Uiso  ? C
   C189       1.0     0.722164     0.872613     0.612870    Uiso  ? C
   C190       1.0     0.674628     0.901253     0.603364    Uiso  ? C
   C191       1.0     0.738366     0.856495     0.664759    Uiso  ? C
   C192       1.0     0.611109     0.889786     0.736754    Uiso  ? C
   C193       1.0     0.652239     0.892957     0.698176    Uiso  ? C
   C194       1.0     0.700094     0.862920     0.706898    Uiso  ? C
   C195       1.0     0.859268     0.780578     0.614635    Uiso  ? C
   C196       1.0     0.829500     0.790502     0.661059    Uiso  ? C
   C197       1.0     0.839724     0.756508     0.706032    Uiso  ? C
   C198       1.0     0.788792     0.830324     0.670225    Uiso  ? C
   C199       1.0     0.137755     0.013648     0.856883    Uiso  ? C
   C200       1.0     0.106426     0.237445     0.889036    Uiso  ? C
   C201       1.0     0.029985     0.138645     0.882309    Uiso  ? C
   C202       1.0     0.130917     0.112547     0.780978    Uiso  ? C
   C203       1.0     0.102446     0.103002     0.828479    Uiso  ? C
   C204       1.0     0.077431     0.148225     0.853705    Uiso  ? C
   C205       1.0     0.049649     0.043836     0.885888    Uiso  ? C
   C206       1.0     0.134909     0.207285     0.800801    Uiso  ? C
   C207       1.0     0.012092     0.086271     0.894460    Uiso  ? C
   C208       1.0     0.143244     0.164881     0.763229    Uiso  ? C
   C209       1.0     0.097052     0.052796     0.855090    Uiso  ? C
   C210       1.0     0.104215     0.198371     0.848287    Uiso  ? C
   C211       1.0     0.890435     0.135680     0.969090    Uiso  ? C
   C212       1.0     0.910078     0.044217     0.992895    Uiso  ? C
   C213       1.0     0.961161     0.080425     0.919472    Uiso  ? C
   C214       1.0     0.920242     0.089293     0.959065    Uiso  ? C
   C215       1.0     0.140713     0.281552     0.886441    Uiso  ? C
   C216       1.0     0.159926     0.257802     0.794885    Uiso  ? C
   C217       1.0     0.170385     0.291581     0.839944    Uiso  ? C
   C218       1.0     0.211401     0.331073     0.830922    Uiso  ? C
   C219       1.0     0.280182     0.368907     0.888729    Uiso  ? C
   C220       1.0     0.327660     0.397540     0.898069    Uiso  ? C
   C221       1.0     0.299824     0.364720     0.793992    Uiso  ? C
   C222       1.0     0.262278     0.356297     0.836480    Uiso  ? C
   C223       1.0     0.356599     0.362141     0.987175    Uiso  ? C
   C224       1.0     0.387897     0.393562     0.763540    Uiso  ? C
   C225       1.0     0.381419     0.469971     0.862152    Uiso  ? C
   C226       1.0     0.352691     0.422555     0.852743    Uiso  ? C
   C227       1.0     0.385558     0.450245     0.956902    Uiso  ? C
   C228       1.0     0.394068     0.487787     0.914435    Uiso  ? C
   C229       1.0     0.354578     0.402917     0.948113    Uiso  ? C
   C230       1.0     0.347213     0.395647     0.802697    Uiso  ? C
   C231       1.0     0.469333     0.609101     0.864740    Uiso  ? C
   C232       1.0     0.493168     0.589412     0.956174    Uiso  ? C
   C233       1.0     0.419474     0.538566     0.920116    Uiso  ? C
   C234       1.0     0.459242     0.579325     0.911142    Uiso  ? C
   C235       1.0     0.513664     0.643088     0.862240    Uiso  ? C
   C236       1.0     0.638649     0.617655     0.970021    Uiso  ? C
   C237       1.0     0.648234     0.646264     0.922580    Uiso  ? C
   C238       1.0     0.543838     0.614086     0.950356    Uiso  ? C
   C239       1.0     0.586273     0.605516     0.987911    Uiso  ? C
   C240       1.0     0.552803     0.644878     0.902952    Uiso  ? C
   C241       1.0     0.737457     0.610935     0.893581    Uiso  ? C
   C242       1.0     0.698381     0.651685     0.895796    Uiso  ? C
   C243       1.0     0.612556     0.718997     0.869096    Uiso  ? C
   C244       1.0     0.603010     0.671492     0.897564    Uiso  ? C
   C245       1.0     0.664890     0.736753     0.856777    Uiso  ? C
   C246       1.0     0.707292     0.699176     0.865106    Uiso  ? C
   C247       1.0     0.781561     0.613536     0.859289    Uiso  ? C
   C248       1.0     0.791588     0.660035     0.829621    Uiso  ? C
   C249       1.0     0.757809     0.705091     0.840089    Uiso  ? C
   C250       1.0     0.831078     0.669065     0.788606    Uiso  ? C
   C251       1.0     0.135254     0.969319     0.890873    Uiso  ? C
   C252       1.0     0.043825     0.993167     0.910569    Uiso  ? C
   C253       1.0     0.079882     0.919474     0.961421    Uiso  ? C
   C254       1.0     0.088856     0.959237     0.920657    Uiso  ? C
   C255       1.0     0.614257     0.856225     0.781248    Uiso  ? C
   C256       1.0     0.661272     0.827592     0.791404    Uiso  ? C
   C257       1.0     0.706123     0.838039     0.757404    Uiso  ? C
   C258       1.0     0.670744     0.787504     0.831560    Uiso  ? C
   C259       1.0     0.974442     0.928159     0.995558    Uiso  ? C
   C260       1.0     0.822192     0.774488     0.754552    Uiso  ? C
   C261       1.0     0.995354     0.974978     0.928010    Uiso  ? C
   C262       1.0     0.754829     0.821385     0.775765    Uiso  ? C
   C263       1.0     0.927709     0.995799     0.974745    Uiso  ? C
   C264       1.0     0.775937     0.753568     0.822532    Uiso  ? C
   H1         1.0     0.644611     0.191903     0.079673    Uiso  ? H
   H2         1.0     0.924570     0.082337     0.230919    Uiso  ? H
   H3         1.0     0.832086     0.174770     0.019236    Uiso  ? H
   H4         1.0     0.894708     0.005648     0.172526    Uiso  ? H
   H5         1.0     0.755443     0.144825     0.077544    Uiso  ? H
   H6         1.0     0.394725     0.329700     0.058372    Uiso  ? H
   H7         1.0     0.582328     0.269071     0.075429    Uiso  ? H
   H8         1.0     0.505638     0.327456     0.105290    Uiso  ? H
   H9         1.0     0.644798     0.422439     0.244572    Uiso  ? H
   H10        1.0     0.674745     0.480754     0.167943    Uiso  ? H
   H11        1.0     0.078682     0.644787     0.191384    Uiso  ? H
   H12        1.0     0.670519     0.557968     0.105700    Uiso  ? H
   H13        1.0     0.230629     0.924555     0.082253    Uiso  ? H
   H14        1.0     0.018731     0.832379     0.174474    Uiso  ? H
   H15        1.0     0.076873     0.755617     0.144408    Uiso  ? H
   H16        1.0     0.172203     0.894809     0.005456    Uiso  ? H
   H17        1.0     0.307672     0.920201     0.144672    Uiso  ? H
   H18        1.0     0.941611     0.894727     0.170280    Uiso  ? H
   H19        1.0     0.341010     0.063508     0.378564    Uiso  ? H
   H20        1.0     0.920315     0.144607     0.308097    Uiso  ? H
   H21        1.0     0.057966     0.394283     0.329475    Uiso  ? H
   H22        1.0     0.691900     0.420311     0.355385    Uiso  ? H
   H23        1.0     0.980753     0.332040     0.325254    Uiso  ? H
   H24        1.0     0.922437     0.255414     0.355201    Uiso  ? H
   H25        1.0     0.769070     0.424559     0.417666    Uiso  ? H
   H26        1.0     0.827456     0.394700     0.494357    Uiso  ? H
   H27        1.0     0.074193     0.582352     0.268434    Uiso  ? H
   H28        1.0     0.104055     0.505395     0.327061    Uiso  ? H
   H29        1.0     0.243699     0.644254     0.421702    Uiso  ? H
   H30        1.0     0.167287     0.674386     0.480334    Uiso  ? H
   H31        1.0     0.351964     0.691515     0.420437    Uiso  ? H
   H32        1.0     0.362052     0.921254     0.251645    Uiso  ? H
   H33        1.0     0.337831     0.984924     0.319039    Uiso  ? H
   H34        1.0     0.412748     0.769522     0.426268    Uiso  ? H
   H35        1.0     0.490185     0.821954     0.397880    Uiso  ? H
   H36        1.0     0.621458     0.840982     0.436552    Uiso  ? H
   H37        1.0     0.191621     0.079546     0.648033    Uiso  ? H
   H38        1.0     0.269622     0.073759     0.587236    Uiso  ? H
   H39        1.0     0.322018     0.102210     0.509773    Uiso  ? H
   H40        1.0     0.421271     0.248457     0.637913    Uiso  ? H
   H41        1.0     0.485004     0.181095     0.662116    Uiso  ? H
   H42        1.0     0.563556     0.121523     0.658981    Uiso  ? H
   H43        1.0     0.420187     0.355383     0.692291    Uiso  ? H
   H44        1.0     0.829702     0.441608     0.605279    Uiso  ? H
   H45        1.0     0.105355     0.670071     0.557795    Uiso  ? H
   H46        1.0     0.825504     0.518733     0.667619    Uiso  ? H
   H47        1.0     0.917706     0.730618     0.575424    Uiso  ? H
   H48        1.0     0.994514     0.672208     0.605167    Uiso  ? H
   H49        1.0     0.855576     0.576882     0.744374    Uiso  ? H
   H50        1.0     0.681057     0.837890     0.515085    Uiso  ? H
   H51        1.0     0.748442     0.862131     0.578776    Uiso  ? H
   H52        1.0     0.573784     0.912804     0.730464    Uiso  ? H
   H53        1.0     0.602205     0.990267     0.678045    Uiso  ? H
   H54        1.0     0.855322     0.807694     0.579810    Uiso  ? H
   H55        1.0     0.082355     0.231538     0.925771    Uiso  ? H
   H56        1.0     0.174390     0.019626     0.832677    Uiso  ? H
   H57        1.0     0.005406     0.172923     0.895885    Uiso  ? H
   H58        1.0     0.144296     0.078275     0.756278    Uiso  ? H
   H59        1.0     0.894327     0.170538     0.942022    Uiso  ? H
   H60        1.0     0.144783     0.308596     0.921293    Uiso  ? H
   H61        1.0     0.332384     0.325504     0.981247    Uiso  ? H
   H62        1.0     0.255625     0.355565     0.923106    Uiso  ? H
   H63        1.0     0.424552     0.417765     0.769366    Uiso  ? H
   H64        1.0     0.394804     0.494544     0.827793    Uiso  ? H
   H65        1.0     0.442185     0.605360     0.829927    Uiso  ? H
   H66        1.0     0.519648     0.667287     0.825603    Uiso  ? H
   H67        1.0     0.731547     0.574198     0.917650    Uiso  ? H
   H68        1.0     0.672924     0.604074     0.994597    Uiso  ? H
   H69        1.0     0.578289     0.743698     0.855722    Uiso  ? H
   H70        1.0     0.808606     0.578680     0.855219    Uiso  ? H
   H71        1.0     0.170065     0.942167     0.894610    Uiso  ? H
   H72        1.0     0.579558     0.851977     0.808446    Uiso  ? H
   B1         1.0     0.708028     0.178524     0.228617    Uiso  ? B
   B2         1.0     0.458204     0.478610     0.071744    Uiso  ? B
   B3         1.0     0.227784     0.707911     0.178148    Uiso  ? B
   B4         1.0     0.521640     0.571373     0.042197    Uiso  ? B
   B5         1.0     0.320778     0.771112     0.207882    Uiso  ? B
   B6         1.0     0.928252     0.958214     0.021372    Uiso  ? B
   B7         1.0     0.463093     0.051726     0.456383    Uiso  ? B
   B8         1.0     0.771368     0.208018     0.321470    Uiso  ? B
   B9         1.0     0.071366     0.457800     0.478349    Uiso  ? B
   B10        1.0     0.678523     0.271366     0.291967    Uiso  ? B
   B11        1.0     0.291261     0.677845     0.270555    Uiso  ? B
   B12        1.0     0.543601     0.963035     0.448341    Uiso  ? B
   B13        1.0     0.177876     0.229432     0.708724    Uiso  ? B
   B14        1.0     0.551710     0.043629     0.536959    Uiso  ? B
   B15        1.0     0.271096     0.292143     0.679188    Uiso  ? B
   B16        1.0     0.978609     0.428249     0.541789    Uiso  ? B
   B17        1.0     0.041946     0.521125     0.571255    Uiso  ? B
   B18        1.0     0.792128     0.820799     0.728946    Uiso  ? B
   B19        1.0     0.957804     0.021647     0.928610    Uiso  ? B
   B20        1.0     0.207914     0.321846     0.772192    Uiso  ? B
   B21        1.0     0.428732     0.541958     0.978875    Uiso  ? B
   B22        1.0     0.821841     0.727794     0.792086    Uiso  ? B
   B23        1.0     0.021122     0.928735     0.958028    Uiso  ? B
   B24        1.0     0.729445     0.791246     0.822140    Uiso  ? B
