
#======================================================================
# CRYSTAL DATA
#----------------------------------------------------------------------
data_VESTA_phase_1

_chemical_name_common                  'POSCAR file written by OVITO Basic 3.8'
_cell_length_a                         23.294600
_cell_length_b                         23.294600
_cell_length_c                         23.294600
_cell_angle_alpha                      90.000000
_cell_angle_beta                       90.000000
_cell_angle_gamma                      90.000000
_cell_volume                           12640.543460
_space_group_name_H-M_alt              'P 1'
_space_group_IT_number                 1

loop_
_space_group_symop_operation_xyz
   'x, y, z'

loop_
   _atom_site_label
   _atom_site_occupancy
   _atom_site_fract_x
   _atom_site_fract_y
   _atom_site_fract_z
   _atom_site_adp_type
   _atom_site_U_iso_or_equiv
   _atom_site_type_symbol
   C1         1.0     0.612894     0.257269     0.096896    Uiso  ? C
   C2         1.0     0.643166     0.206420     0.101930    Uiso  ? C
   C3         1.0     0.648474     0.226248     0.203330    Uiso  ? C
   C4         1.0     0.658687     0.204708     0.256640    Uiso  ? C
   C5         1.0     0.631736     0.282396     0.195012    Uiso  ? C
   C6         1.0     0.642691     0.326717     0.235117    Uiso  ? C
   C7         1.0     0.607730     0.296903     0.141504    Uiso  ? C
   C8         1.0     0.656858     0.241250     0.304644    Uiso  ? C
   C9         1.0     0.665431     0.192011     0.156600    Uiso  ? C
   C10        1.0     0.862900     0.153107     0.007272    Uiso  ? C
   C11        1.0     0.903105     0.112897     0.242730    Uiso  ? C
   C12        1.0     0.898071     0.143165     0.293582    Uiso  ? C
   C13        1.0     0.891564     0.032852     0.134663    Uiso  ? C
   C14        1.0     0.782852     0.141565     0.115336    Uiso  ? C
   C15        1.0     0.833455     0.112624     0.102280    Uiso  ? C
   C16        1.0     0.862625     0.083454     0.147721    Uiso  ? C
   C17        1.0     0.695353     0.156855     0.258749    Uiso  ? C
   C18        1.0     0.796670     0.148478     0.273749    Uiso  ? C
   C19        1.0     0.743359     0.158684     0.295293    Uiso  ? C
   C20        1.0     0.881732     0.054981     0.032396    Uiso  ? C
   C21        1.0     0.804985     0.131735     0.217602    Uiso  ? C
   C22        1.0     0.892693     0.014882     0.076718    Uiso  ? C
   C23        1.0     0.764883     0.142691     0.173283    Uiso  ? C
   C24        1.0     0.843401     0.165430     0.307989    Uiso  ? C
   C25        1.0     0.857729     0.108493     0.046902    Uiso  ? C
   C26        1.0     0.858493     0.107729     0.203098    Uiso  ? C
   C27        1.0     0.096896     0.612893     0.257268    Uiso  ? C
   C28        1.0     0.101932     0.643165     0.206421    Uiso  ? C
   C29        1.0     0.203329     0.648472     0.226248    Uiso  ? C
   C30        1.0     0.256638     0.658690     0.204709    Uiso  ? C
   C31        1.0     0.195010     0.631736     0.282396    Uiso  ? C
   C32        1.0     0.235118     0.642692     0.326716    Uiso  ? C
   C33        1.0     0.141502     0.607732     0.296902    Uiso  ? C
   C34        1.0     0.304643     0.656859     0.241250    Uiso  ? C
   C35        1.0     0.156600     0.665432     0.192014    Uiso  ? C
   C36        1.0     0.653108     0.492729     0.137099    Uiso  ? C
   C37        1.0     0.648070     0.543585     0.106840    Uiso  ? C
   C38        1.0     0.393167     0.351929     0.043583    Uiso  ? C
   C39        1.0     0.532852     0.365337     0.108436    Uiso  ? C
   C40        1.0     0.641566     0.384665     0.217148    Uiso  ? C
   C41        1.0     0.612623     0.397722     0.166547    Uiso  ? C
   C42        1.0     0.583453     0.352280     0.137377    Uiso  ? C
   C43        1.0     0.491250     0.593140     0.054644    Uiso  ? C
   C44        1.0     0.445356     0.508749     0.093145    Uiso  ? C
   C45        1.0     0.546669     0.523749     0.101519    Uiso  ? C
   C46        1.0     0.398478     0.453335     0.023746    Uiso  ? C
   C47        1.0     0.454707     0.591311     0.006639    Uiso  ? C
   C48        1.0     0.493359     0.545294     0.091317    Uiso  ? C
   C49        1.0     0.408690     0.506641     0.045293    Uiso  ? C
   C50        1.0     0.554980     0.467605     0.118269    Uiso  ? C
   C51        1.0     0.514882     0.423282     0.107307    Uiso  ? C
   C52        1.0     0.593400     0.557987     0.084567    Uiso  ? C
   C53        1.0     0.415426     0.406601     0.057985    Uiso  ? C
   C54        1.0     0.608493     0.453098     0.142268    Uiso  ? C
   C55        1.0     0.406855     0.554644     0.008750    Uiso  ? C
   C56        1.0     0.242729     0.903105     0.112898    Uiso  ? C
   C57        1.0     0.007267     0.862895     0.153105    Uiso  ? C
   C58        1.0     0.293583     0.898071     0.143163    Uiso  ? C
   C59        1.0     0.115338     0.782849     0.141564    Uiso  ? C
   C60        1.0     0.134666     0.891566     0.032849    Uiso  ? C
   C61        1.0     0.147718     0.862624     0.083453    Uiso  ? C
   C62        1.0     0.102276     0.833455     0.112626    Uiso  ? C
   C63        1.0     0.258749     0.695353     0.156855    Uiso  ? C
   C64        1.0     0.273750     0.796670     0.148479    Uiso  ? C
   C65        1.0     0.295293     0.743359     0.158683    Uiso  ? C
   C66        1.0     0.217603     0.804984     0.131733    Uiso  ? C
   C67        1.0     0.032397     0.881736     0.054987    Uiso  ? C
   C68        1.0     0.173284     0.764882     0.142694    Uiso  ? C
   C69        1.0     0.076718     0.892692     0.014885    Uiso  ? C
   C70        1.0     0.307990     0.843402     0.165430    Uiso  ? C
   C71        1.0     0.203095     0.858494     0.107729    Uiso  ? C
   C72        1.0     0.046900     0.857732     0.108496    Uiso  ? C
   C73        1.0     0.343143     0.741251     0.195354    Uiso  ? C
   C74        1.0     0.358434     0.884663     0.282852    Uiso  ? C
   C75        1.0     0.351523     0.726245     0.296671    Uiso  ? C
   C76        1.0     0.341316     0.704706     0.243360    Uiso  ? C
   C77        1.0     0.368265     0.782393     0.304986    Uiso  ? C
   C78        1.0     0.357311     0.826713     0.264884    Uiso  ? C
   C79        1.0     0.956419     0.893167     0.148069    Uiso  ? C
   C80        1.0     0.976246     0.898477     0.046667    Uiso  ? C
   C81        1.0     0.942017     0.915428     0.093397    Uiso  ? C
   C82        1.0     0.257268     0.096895     0.612898    Uiso  ? C
   C83        1.0     0.206415     0.101939     0.643159    Uiso  ? C
   C84        1.0     0.226239     0.203327     0.648477    Uiso  ? C
   C85        1.0     0.204708     0.256640     0.658682    Uiso  ? C
   C86        1.0     0.282395     0.195009     0.631731    Uiso  ? C
   C87        1.0     0.326713     0.235114     0.642687    Uiso  ? C
   C88        1.0     0.296904     0.141498     0.607737    Uiso  ? C
   C89        1.0     0.241254     0.304647     0.656855    Uiso  ? C
   C90        1.0     0.192017     0.156600     0.665442    Uiso  ? C
   C91        1.0     0.492732     0.137102     0.653104    Uiso  ? C
   C92        1.0     0.351933     0.043581     0.393162    Uiso  ? C
   C93        1.0     0.543585     0.106839     0.648068    Uiso  ? C
   C94        1.0     0.384664     0.217154     0.641570    Uiso  ? C
   C95        1.0     0.365338     0.108434     0.532849    Uiso  ? C
   C96        1.0     0.352273     0.137376     0.583453    Uiso  ? C
   C97        1.0     0.397715     0.166550     0.612624    Uiso  ? C
   C98        1.0     0.593143     0.054648     0.491248    Uiso  ? C
   C99        1.0     0.508749     0.093140     0.445354    Uiso  ? C
   C100       1.0     0.453327     0.023751     0.398474    Uiso  ? C
   C101       1.0     0.523756     0.101526     0.546675    Uiso  ? C
   C102       1.0     0.545291     0.091315     0.493362    Uiso  ? C
   C103       1.0     0.506639     0.045291     0.408681    Uiso  ? C
   C104       1.0     0.591313     0.006639     0.454708    Uiso  ? C
   C105       1.0     0.467609     0.118266     0.554988    Uiso  ? C
   C106       1.0     0.423291     0.107309     0.514886    Uiso  ? C
   C107       1.0     0.406599     0.057988     0.415435    Uiso  ? C
   C108       1.0     0.557986     0.084564     0.593404    Uiso  ? C
   C109       1.0     0.453093     0.142266     0.608498    Uiso  ? C
   C110       1.0     0.554647     0.008749     0.406855    Uiso  ? C
   C111       1.0     0.741252     0.195355     0.343145    Uiso  ? C
   C112       1.0     0.884664     0.282852     0.358435    Uiso  ? C
   C113       1.0     0.726247     0.296671     0.351523    Uiso  ? C
   C114       1.0     0.704706     0.243360     0.341316    Uiso  ? C
   C115       1.0     0.782394     0.304985     0.368266    Uiso  ? C
   C116       1.0     0.826715     0.264884     0.357310    Uiso  ? C
   C117       1.0     0.137102     0.653105     0.492732    Uiso  ? C
   C118       1.0     0.106837     0.648069     0.543584    Uiso  ? C
   C119       1.0     0.043582     0.393163     0.351931    Uiso  ? C
   C120       1.0     0.108436     0.532851     0.365337    Uiso  ? C
   C121       1.0     0.217152     0.641567     0.384664    Uiso  ? C
   C122       1.0     0.166547     0.612625     0.397719    Uiso  ? C
   C123       1.0     0.137376     0.583454     0.352277    Uiso  ? C
   C124       1.0     0.093144     0.445354     0.508749    Uiso  ? C
   C125       1.0     0.054644     0.491250     0.593143    Uiso  ? C
   C126       1.0     0.101523     0.546671     0.523754    Uiso  ? C
   C127       1.0     0.023751     0.398477     0.453328    Uiso  ? C
   C128       1.0     0.045291     0.408683     0.506640    Uiso  ? C
   C129       1.0     0.006640     0.454708     0.591312    Uiso  ? C
   C130       1.0     0.091315     0.493360     0.545294    Uiso  ? C
   C131       1.0     0.118266     0.554985     0.467606    Uiso  ? C
   C132       1.0     0.107309     0.514885     0.423286    Uiso  ? C
   C133       1.0     0.084567     0.593401     0.557986    Uiso  ? C
   C134       1.0     0.057990     0.415433     0.406599    Uiso  ? C
   C135       1.0     0.142268     0.608496     0.453096    Uiso  ? C
   C136       1.0     0.008748     0.406856     0.554646    Uiso  ? C
   C137       1.0     0.692014     0.343401     0.334567    Uiso  ? C
   C138       1.0     0.897722     0.333454     0.387376    Uiso  ? C
   C139       1.0     0.757267     0.403106     0.387103    Uiso  ? C
   C140       1.0     0.846895     0.507268     0.637107    Uiso  ? C
   C141       1.0     0.992729     0.362898     0.346896    Uiso  ? C
   C142       1.0     0.706416     0.398070     0.356837    Uiso  ? C
   C143       1.0     0.851931     0.456420     0.606834    Uiso  ? C
   C144       1.0     0.967149     0.634666     0.608434    Uiso  ? C
   C145       1.0     0.865337     0.391566     0.467151    Uiso  ? C
   C146       1.0     0.852281     0.362624     0.416547    Uiso  ? C
   C147       1.0     0.916547     0.647720     0.637377    Uiso  ? C
   C148       1.0     0.953331     0.476248     0.601526    Uiso  ? C
   C149       1.0     0.945012     0.532395     0.618264    Uiso  ? C
   C150       1.0     0.967602     0.381732     0.445014    Uiso  ? C
   C151       1.0     0.985116     0.576718     0.607309    Uiso  ? C
   C152       1.0     0.923284     0.392692     0.485117    Uiso  ? C
   C153       1.0     0.906601     0.442013     0.584569    Uiso  ? C
   C154       1.0     0.796903     0.358496     0.392268    Uiso  ? C
   C155       1.0     0.891503     0.546901     0.642269    Uiso  ? C
   C156       1.0     0.953096     0.357731     0.391505    Uiso  ? C
   C157       1.0     0.887377     0.602277     0.666545    Uiso  ? C
   C158       1.0     0.387378     0.897722     0.333454    Uiso  ? C
   C159       1.0     0.334565     0.692015     0.343401    Uiso  ? C
   C160       1.0     0.346897     0.992729     0.362895    Uiso  ? C
   C161       1.0     0.387102     0.757267     0.403107    Uiso  ? C
   C162       1.0     0.637107     0.846896     0.507268    Uiso  ? C
   C163       1.0     0.356838     0.706415     0.398068    Uiso  ? C
   C164       1.0     0.606832     0.851931     0.456420    Uiso  ? C
   C165       1.0     0.467151     0.865337     0.391568    Uiso  ? C
   C166       1.0     0.608433     0.967148     0.634663    Uiso  ? C
   C167       1.0     0.416549     0.852280     0.362624    Uiso  ? C
   C168       1.0     0.637377     0.916547     0.647722    Uiso  ? C
   C169       1.0     0.601525     0.953330     0.476249    Uiso  ? C
   C170       1.0     0.445012     0.967604     0.381733    Uiso  ? C
   C171       1.0     0.618262     0.945012     0.532396    Uiso  ? C
   C172       1.0     0.485117     0.923284     0.392690    Uiso  ? C
   C173       1.0     0.607310     0.985117     0.576716    Uiso  ? C
   C174       1.0     0.584572     0.906601     0.442015    Uiso  ? C
   C175       1.0     0.391503     0.953095     0.357732    Uiso  ? C
   C176       1.0     0.392267     0.796903     0.358497    Uiso  ? C
   C177       1.0     0.642270     0.891504     0.546902    Uiso  ? C
   C178       1.0     0.666547     0.887377     0.602279    Uiso  ? C
   C179       1.0     0.887102     0.742731     0.596895    Uiso  ? C
   C180       1.0     0.856835     0.793584     0.601929    Uiso  ? C
   C181       1.0     0.717148     0.858434     0.615336    Uiso  ? C
   C182       1.0     0.834570     0.807987     0.656599    Uiso  ? C
   C183       1.0     0.892269     0.703097     0.641507    Uiso  ? C
   C184       1.0     0.153106     0.007267     0.862900    Uiso  ? C
   C185       1.0     0.112892     0.242732     0.903101    Uiso  ? C
   C186       1.0     0.143164     0.293579     0.898067    Uiso  ? C
   C187       1.0     0.032848     0.134663     0.891561    Uiso  ? C
   C188       1.0     0.141564     0.115337     0.782843    Uiso  ? C
   C189       1.0     0.112628     0.102281     0.833453    Uiso  ? C
   C190       1.0     0.083456     0.147720     0.862627    Uiso  ? C
   C191       1.0     0.156862     0.258750     0.695360    Uiso  ? C
   C192       1.0     0.148468     0.273755     0.796674    Uiso  ? C
   C193       1.0     0.158692     0.295290     0.743366    Uiso  ? C
   C194       1.0     0.054985     0.032394     0.881731    Uiso  ? C
   C195       1.0     0.131734     0.217604     0.804992    Uiso  ? C
   C196       1.0     0.014886     0.076711     0.892693    Uiso  ? C
   C197       1.0     0.142696     0.173286     0.764884    Uiso  ? C
   C198       1.0     0.165435     0.307987     0.843401    Uiso  ? C
   C199       1.0     0.108498     0.046905     0.857735    Uiso  ? C
   C200       1.0     0.107733     0.203095     0.858501    Uiso  ? C
   C201       1.0     0.893162     0.148072     0.956417    Uiso  ? C
   C202       1.0     0.898481     0.046669     0.976252    Uiso  ? C
   C203       1.0     0.915430     0.093400     0.942010    Uiso  ? C
   C204       1.0     0.195350     0.343145     0.741248    Uiso  ? C
   C205       1.0     0.282852     0.358437     0.884664    Uiso  ? C
   C206       1.0     0.296670     0.351518     0.726250    Uiso  ? C
   C207       1.0     0.243358     0.341317     0.704709    Uiso  ? C
   C208       1.0     0.304983     0.368265     0.782396    Uiso  ? C
   C209       1.0     0.264881     0.357306     0.826718    Uiso  ? C
   C210       1.0     0.343399     0.334573     0.692007    Uiso  ? C
   C211       1.0     0.333455     0.387375     0.897725    Uiso  ? C
   C212       1.0     0.362898     0.346893     0.992733    Uiso  ? C
   C213       1.0     0.507269     0.637101     0.846894    Uiso  ? C
   C214       1.0     0.403107     0.387105     0.757272    Uiso  ? C
   C215       1.0     0.456416     0.606838     0.851931    Uiso  ? C
   C216       1.0     0.398071     0.356834     0.706421    Uiso  ? C
   C217       1.0     0.391564     0.467149     0.865336    Uiso  ? C
   C218       1.0     0.634665     0.608437     0.967147    Uiso  ? C
   C219       1.0     0.647721     0.637377     0.916545    Uiso  ? C
   C220       1.0     0.362624     0.416545     0.852282    Uiso  ? C
   C221       1.0     0.476246     0.601523     0.953329    Uiso  ? C
   C222       1.0     0.381736     0.445018     0.967604    Uiso  ? C
   C223       1.0     0.532395     0.618267     0.945017    Uiso  ? C
   C224       1.0     0.392692     0.485117     0.923282    Uiso  ? C
   C225       1.0     0.576717     0.607307     0.985116    Uiso  ? C
   C226       1.0     0.442014     0.584567     0.906600    Uiso  ? C
   C227       1.0     0.357731     0.391508     0.953103    Uiso  ? C
   C228       1.0     0.546903     0.642267     0.891505    Uiso  ? C
   C229       1.0     0.358493     0.392274     0.796902    Uiso  ? C
   C230       1.0     0.602278     0.666547     0.887376    Uiso  ? C
   C231       1.0     0.742729     0.596896     0.887104    Uiso  ? C
   C232       1.0     0.793582     0.601931     0.856838    Uiso  ? C
   C233       1.0     0.858437     0.615337     0.717148    Uiso  ? C
   C234       1.0     0.807989     0.656599     0.834565    Uiso  ? C
   C235       1.0     0.703096     0.641503     0.892268    Uiso  ? C
   C236       1.0     0.148067     0.956414     0.893160    Uiso  ? C
   C237       1.0     0.046674     0.976242     0.898478    Uiso  ? C
   C238       1.0     0.093402     0.942014     0.915437    Uiso  ? C
   C239       1.0     0.596893     0.887104     0.742731    Uiso  ? C
   C240       1.0     0.601931     0.856836     0.793582    Uiso  ? C
   C241       1.0     0.615335     0.717149     0.858435    Uiso  ? C
   C242       1.0     0.656601     0.834571     0.807985    Uiso  ? C
   C243       1.0     0.641505     0.892269     0.703099    Uiso  ? C
   C244       1.0     0.906853     0.945355     0.991253    Uiso  ? C
   C245       1.0     0.945356     0.991251     0.906859    Uiso  ? C
   C246       1.0     0.991250     0.906857     0.945357    Uiso  ? C
   C247       1.0     0.804645     0.843145     0.758749    Uiso  ? C
   C248       1.0     0.758749     0.804645     0.843143    Uiso  ? C
   C249       1.0     0.843143     0.758750     0.804647    Uiso  ? C
   C250       1.0     0.773753     0.703329     0.851525    Uiso  ? C
   C251       1.0     0.851523     0.773750     0.703329    Uiso  ? C
   C252       1.0     0.703331     0.851523     0.773749    Uiso  ? C
   C253       1.0     0.954707     0.908692     0.993362    Uiso  ? C
   C254       1.0     0.841314     0.795292     0.756640    Uiso  ? C
   C255       1.0     0.993361     0.954707     0.908685    Uiso  ? C
   C256       1.0     0.756640     0.841315     0.795293    Uiso  ? C
   C257       1.0     0.908682     0.993359     0.954707    Uiso  ? C
   C258       1.0     0.795292     0.756640     0.841314    Uiso  ? C
   C259       1.0     0.717604     0.695014     0.868268    Uiso  ? C
   C260       1.0     0.868265     0.717604     0.695016    Uiso  ? C
   C261       1.0     0.695015     0.868265     0.717606    Uiso  ? C
   C262       1.0     0.673283     0.735117     0.857307    Uiso  ? C
   C263       1.0     0.857308     0.673285     0.735116    Uiso  ? C
   C264       1.0     0.735117     0.857310     0.673283    Uiso  ? C
   B1         1.0     0.662543     0.304163     0.291534    Uiso  ? B
   B2         1.0     0.708469     0.162546     0.195839    Uiso  ? B
   B3         1.0     0.291536     0.662542     0.304163    Uiso  ? B
   B4         1.0     0.458469     0.445836     0.087453    Uiso  ? B
   B5         1.0     0.554162     0.587458     0.041533    Uiso  ? B
   B6         1.0     0.195840     0.708467     0.162545    Uiso  ? B
   B7         1.0     0.337455     0.804163     0.208470    Uiso  ? B
   B8         1.0     0.912550     0.958464     0.054159    Uiso  ? B
   B9         1.0     0.304165     0.291528     0.662547    Uiso  ? B
   B10        1.0     0.587457     0.041533     0.554163    Uiso  ? B
   B11        1.0     0.445838     0.087460     0.458465    Uiso  ? B
   B12        1.0     0.804163     0.208468     0.337454    Uiso  ? B
   B13        1.0     0.041535     0.554163     0.587457    Uiso  ? B
   B14        1.0     0.087455     0.458467     0.445837    Uiso  ? B
   B15        1.0     0.945839     0.412544     0.541532    Uiso  ? B
   B16        1.0     0.541532     0.945838     0.412546    Uiso  ? B
   B17        1.0     0.162538     0.195836     0.708456    Uiso  ? B
   B18        1.0     0.958468     0.054162     0.912543    Uiso  ? B
   B19        1.0     0.208466     0.337455     0.804158    Uiso  ? B
   B20        1.0     0.412546     0.541533     0.945838    Uiso  ? B
   B21        1.0     0.054164     0.912543     0.958461    Uiso  ? B
   B22        1.0     0.695838     0.791532     0.837458    Uiso  ? B
   B23        1.0     0.837458     0.695838     0.791532    Uiso  ? B
   B24        1.0     0.791532     0.837454     0.695837    Uiso  ? B
   H1         1.0     0.593921     0.267842     0.055431    Uiso  ? H
   H2         1.0     0.399139     0.315767     0.072628    Uiso  ? H
   H3         1.0     0.649139     0.177372     0.065768    Uiso  ? H
   H4         1.0     0.508782     0.331435     0.086985    Uiso  ? H
   H5         1.0     0.944572     0.093919     0.232158    Uiso  ? H
   H6         1.0     0.843918     0.194573     0.017841    Uiso  ? H
   H7         1.0     0.934232     0.149140     0.322627    Uiso  ? H
   H8         1.0     0.913014     0.008783     0.168564    Uiso  ? H
   H9         1.0     0.758782     0.163015     0.081435    Uiso  ? H
   H10        1.0     0.055433     0.593922     0.267842    Uiso  ? H
   H11        1.0     0.065769     0.649139     0.177373    Uiso  ? H
   H12        1.0     0.072627     0.399140     0.315769    Uiso  ? H
   H13        1.0     0.086983     0.508779     0.331431    Uiso  ? H
   H14        1.0     0.663014     0.418565     0.241218    Uiso  ? H
   H15        1.0     0.982158     0.343919     0.305429    Uiso  ? H
   H16        1.0     0.694573     0.482158     0.156083    Uiso  ? H
   H17        1.0     0.684231     0.572626     0.100859    Uiso  ? H
   H18        1.0     0.232159     0.944571     0.093919    Uiso  ? H
   H19        1.0     0.017844     0.843920     0.194569    Uiso  ? H
   H20        1.0     0.322627     0.934231     0.149140    Uiso  ? H
   H21        1.0     0.081435     0.758783     0.163015    Uiso  ? H
   H22        1.0     0.168565     0.913016     0.008781    Uiso  ? H
   H23        1.0     0.336982     0.918571     0.258778    Uiso  ? H
   H24        1.0     0.927372     0.899139     0.184234    Uiso  ? H
   H25        1.0     0.267845     0.055435     0.593919    Uiso  ? H
   H26        1.0     0.177378     0.065772     0.649140    Uiso  ? H
   H27        1.0     0.315770     0.072626     0.399140    Uiso  ? H
   H28        1.0     0.331427     0.086982     0.508778    Uiso  ? H
   H29        1.0     0.418572     0.241222     0.663018    Uiso  ? H
   H30        1.0     0.918568     0.258780     0.336983    Uiso  ? H
   H31        1.0     0.241218     0.663015     0.418566    Uiso  ? H
   H32        1.0     0.767843     0.444568     0.406080    Uiso  ? H
   H33        1.0     0.805432     0.517843     0.656079    Uiso  ? H
   H34        1.0     0.677375     0.434229     0.350860    Uiso  ? H
   H35        1.0     0.815768     0.427372     0.600861    Uiso  ? H
   H36        1.0     0.831434     0.413015     0.491219    Uiso  ? H
   H37        1.0     0.156080     0.694569     0.482157    Uiso  ? H
   H38        1.0     0.305432     0.982158     0.343921    Uiso  ? H
   H39        1.0     0.100860     0.684229     0.572625    Uiso  ? H
   H40        1.0     0.656079     0.805432     0.517842    Uiso  ? H
   H41        1.0     0.406080     0.767843     0.444567    Uiso  ? H
   H42        1.0     0.600861     0.815767     0.427371    Uiso  ? H
   H43        1.0     0.350860     0.677376     0.434229    Uiso  ? H
   H44        1.0     0.491219     0.831433     0.413015    Uiso  ? H
   H45        1.0     0.906081     0.732158     0.555429    Uiso  ? H
   H46        1.0     0.850860     0.822626     0.565770    Uiso  ? H
   H47        1.0     0.991218     0.668565     0.586985    Uiso  ? H
   H48        1.0     0.741219     0.836986     0.581435    Uiso  ? H
   H49        1.0     0.093924     0.232158     0.944564    Uiso  ? H
   H50        1.0     0.194566     0.017844     0.843920    Uiso  ? H
   H51        1.0     0.149139     0.322625     0.934229    Uiso  ? H
   H52        1.0     0.008777     0.168574     0.913021    Uiso  ? H
   H53        1.0     0.163018     0.081431     0.758781    Uiso  ? H
   H54        1.0     0.343918     0.305427     0.982156    Uiso  ? H
   H55        1.0     0.482158     0.156079     0.694565    Uiso  ? H
   H56        1.0     0.572622     0.100860     0.684226    Uiso  ? H
   H57        1.0     0.899140     0.184232     0.927373    Uiso  ? H
   H58        1.0     0.258783     0.336986     0.918563    Uiso  ? H
   H59        1.0     0.444572     0.406080     0.767840    Uiso  ? H
   H60        1.0     0.517842     0.656081     0.805429    Uiso  ? H
   H61        1.0     0.434234     0.350860     0.677370    Uiso  ? H
   H62        1.0     0.427375     0.600860     0.815770    Uiso  ? H
   H63        1.0     0.413015     0.491219     0.831435    Uiso  ? H
   H64        1.0     0.732159     0.555430     0.906080    Uiso  ? H
   H65        1.0     0.822626     0.565769     0.850860    Uiso  ? H
   H66        1.0     0.836984     0.581433     0.741219    Uiso  ? H
   H67        1.0     0.668567     0.586983     0.991220    Uiso  ? H
   H68        1.0     0.184226     0.927379     0.899140    Uiso  ? H
   H69        1.0     0.555430     0.906080     0.732158    Uiso  ? H
   H70        1.0     0.565767     0.850860     0.822628    Uiso  ? H
   H71        1.0     0.581435     0.741218     0.836985    Uiso  ? H
   H72        1.0     0.586985     0.991219     0.668566    Uiso  ? H
