
#======================================================================
# CRYSTAL DATA
#----------------------------------------------------------------------
data_VESTA_phase_1

_chemical_name_common                  'POSCAR file written by OVITO Basic 3.8'
_cell_length_a                         24.669201
_cell_length_b                         24.669201
_cell_length_c                         24.669201
_cell_angle_alpha                      90.000000
_cell_angle_beta                       90.000000
_cell_angle_gamma                      90.000000
_cell_volume                           15012.922587
_space_group_name_H-M_alt              'P 1'
_space_group_IT_number                 1

loop_
_space_group_symop_operation_xyz
   'x, y, z'

loop_
   _atom_site_label
   _atom_site_occupancy
   _atom_site_fract_x
   _atom_site_fract_y
   _atom_site_fract_z
   _atom_site_adp_type
   _atom_site_U_iso_or_equiv
   _atom_site_type_symbol
   C1         1.0     0.634694     0.216936     0.117169    Uiso  ? C
   C2         1.0     0.662201     0.244743     0.205594    Uiso  ? C
   C3         1.0     0.667798     0.208455     0.161260    Uiso  ? C
   C4         1.0     0.697394     0.233079     0.246936    Uiso  ? C
   C5         1.0     0.712840     0.172095     0.169085    Uiso  ? C
   C6         1.0     0.851831     0.134752     0.011979    Uiso  ? C
   C7         1.0     0.884753     0.101829     0.238022    Uiso  ? C
   C8         1.0     0.880509     0.029319     0.138483    Uiso  ? C
   C9         1.0     0.779320     0.130509     0.111519    Uiso  ? C
   C10        1.0     0.825958     0.100821     0.102320    Uiso  ? C
   C11        1.0     0.850821     0.075958     0.147681    Uiso  ? C
   C12        1.0     0.884176     0.048404     0.043580    Uiso  ? C
   C13        1.0     0.798405     0.134177     0.206421    Uiso  ? C
   C14        1.0     0.894067     0.011999     0.086630    Uiso  ? C
   C15        1.0     0.761997     0.144073     0.163376    Uiso  ? C
   C16        1.0     0.851727     0.094719     0.051816    Uiso  ? C
   C17        1.0     0.844720     0.101727     0.198186    Uiso  ? C
   C18        1.0     0.384697     0.367171     0.033063    Uiso  ? C
   C19        1.0     0.412195     0.455590     0.005253    Uiso  ? C
   C20        1.0     0.462839     0.419083     0.077912    Uiso  ? C
   C21        1.0     0.447411     0.496939     0.016921    Uiso  ? C
   C22        1.0     0.417794     0.411254     0.041545    Uiso  ? C
   C23        1.0     0.601829     0.261978     0.115247    Uiso  ? C
   C24        1.0     0.634176     0.293580     0.201595    Uiso  ? C
   C25        1.0     0.601726     0.301815     0.155280    Uiso  ? C
   C26        1.0     0.644067     0.336630     0.237998    Uiso  ? C
   C27        1.0     0.634755     0.488020     0.148170    Uiso  ? C
   C28        1.0     0.529319     0.361517     0.119492    Uiso  ? C
   C29        1.0     0.630510     0.388480     0.220681    Uiso  ? C
   C30        1.0     0.600821     0.397679     0.174042    Uiso  ? C
   C31        1.0     0.575956     0.352318     0.149178    Uiso  ? C
   C32        1.0     0.548402     0.456424     0.115825    Uiso  ? C
   C33        1.0     0.511994     0.413372     0.105932    Uiso  ? C
   C34        1.0     0.594716     0.448184     0.148272    Uiso  ? C
   C35        1.0     0.117169     0.634695     0.216937    Uiso  ? C
   C36        1.0     0.205591     0.662197     0.244747    Uiso  ? C
   C37        1.0     0.161261     0.667799     0.208455    Uiso  ? C
   C38        1.0     0.246939     0.697400     0.233080    Uiso  ? C
   C39        1.0     0.169084     0.712842     0.172094    Uiso  ? C
   C40        1.0     0.632827     0.533061     0.115303    Uiso  ? C
   C41        1.0     0.544410     0.505258     0.087806    Uiso  ? C
   C42        1.0     0.580922     0.577918     0.037150    Uiso  ? C
   C43        1.0     0.503061     0.516949     0.052600    Uiso  ? C
   C44        1.0     0.588734     0.541538     0.082209    Uiso  ? C
   C45        1.0     0.238022     0.884754     0.101829    Uiso  ? C
   C46        1.0     0.011979     0.851830     0.134753    Uiso  ? C
   C47        1.0     0.111518     0.779321     0.130508    Uiso  ? C
   C48        1.0     0.138483     0.880509     0.029320    Uiso  ? C
   C49        1.0     0.147681     0.850822     0.075958    Uiso  ? C
   C50        1.0     0.102320     0.825957     0.100822    Uiso  ? C
   C51        1.0     0.206421     0.798406     0.134176    Uiso  ? C
   C52        1.0     0.043581     0.884176     0.048405    Uiso  ? C
   C53        1.0     0.163386     0.761989     0.144081    Uiso  ? C
   C54        1.0     0.086613     0.894082     0.011989    Uiso  ? C
   C55        1.0     0.198185     0.844719     0.101727    Uiso  ? C
   C56        1.0     0.051816     0.851727     0.094720    Uiso  ? C
   C57        1.0     0.283063     0.882831     0.134694    Uiso  ? C
   C58        1.0     0.255254     0.794409     0.162197    Uiso  ? C
   C59        1.0     0.266937     0.753065     0.197402    Uiso  ? C
   C60        1.0     0.291544     0.838736     0.167799    Uiso  ? C
   C61        1.0     0.327910     0.830919     0.212844    Uiso  ? C
   C62        1.0     0.966937     0.884694     0.132832    Uiso  ? C
   C63        1.0     0.994742     0.912201     0.044405    Uiso  ? C
   C64        1.0     0.922094     0.962840     0.080914    Uiso  ? C
   C65        1.0     0.958455     0.917797     0.088740    Uiso  ? C
   C66        1.0     0.983074     0.947397     0.003062    Uiso  ? C
   C67        1.0     0.367168     0.033063     0.384694    Uiso  ? C
   C68        1.0     0.455594     0.005257     0.412201    Uiso  ? C
   C69        1.0     0.419085     0.077905     0.462841    Uiso  ? C
   C70        1.0     0.496936     0.016923     0.447397    Uiso  ? C
   C71        1.0     0.411266     0.041547     0.417803    Uiso  ? C
   C72        1.0     0.882831     0.134695     0.283063    Uiso  ? C
   C73        1.0     0.794405     0.162198     0.255255    Uiso  ? C
   C74        1.0     0.753066     0.197395     0.266922    Uiso  ? C
   C75        1.0     0.838749     0.167790     0.291542    Uiso  ? C
   C76        1.0     0.830916     0.212840     0.327904    Uiso  ? C
   C77        1.0     0.033063     0.384694     0.367168    Uiso  ? C
   C78        1.0     0.005257     0.412201     0.455594    Uiso  ? C
   C79        1.0     0.077906     0.462840     0.419084    Uiso  ? C
   C80        1.0     0.016925     0.447399     0.496936    Uiso  ? C
   C81        1.0     0.041545     0.417799     0.411263    Uiso  ? C
   C82        1.0     0.672095     0.330916     0.287159    Uiso  ? C
   C83        1.0     0.733074     0.253068     0.302603    Uiso  ? C
   C84        1.0     0.744742     0.294405     0.337797    Uiso  ? C
   C85        1.0     0.708454     0.338737     0.332199    Uiso  ? C
   C86        1.0     0.716937     0.382832     0.365306    Uiso  ? C
   C87        1.0     0.888481     0.279319     0.369491    Uiso  ? C
   C88        1.0     0.897680     0.325958     0.399179    Uiso  ? C
   C89        1.0     0.793580     0.298406     0.365823    Uiso  ? C
   C90        1.0     0.836630     0.262001     0.355932    Uiso  ? C
   C91        1.0     0.761978     0.384754     0.398171    Uiso  ? C
   C92        1.0     0.988022     0.351829     0.365246    Uiso  ? C
   C93        1.0     0.861517     0.380509     0.470680    Uiso  ? C
   C94        1.0     0.852319     0.350822     0.424042    Uiso  ? C
   C95        1.0     0.956420     0.384176     0.451595    Uiso  ? C
   C96        1.0     0.913387     0.394081     0.488011    Uiso  ? C
   C97        1.0     0.801815     0.344720     0.398273    Uiso  ? C
   C98        1.0     0.948185     0.351727     0.405280    Uiso  ? C
   C99        1.0     0.115247     0.601829     0.261979    Uiso  ? C
   C100       1.0     0.201595     0.634177     0.293579    Uiso  ? C
   C101       1.0     0.155280     0.601727     0.301815    Uiso  ? C
   C102       1.0     0.238006     0.644076     0.336621    Uiso  ? C
   C103       1.0     0.148171     0.634753     0.488021    Uiso  ? C
   C104       1.0     0.119491     0.529320     0.361518    Uiso  ? C
   C105       1.0     0.220680     0.630509     0.388482    Uiso  ? C
   C106       1.0     0.174043     0.600822     0.397680    Uiso  ? C
   C107       1.0     0.149178     0.575957     0.352320    Uiso  ? C
   C108       1.0     0.115824     0.548405     0.456420    Uiso  ? C
   C109       1.0     0.105930     0.511998     0.413374    Uiso  ? C
   C110       1.0     0.148273     0.594720     0.448185    Uiso  ? C
   C111       1.0     0.287159     0.672094     0.330917    Uiso  ? C
   C112       1.0     0.302609     0.733080     0.253055    Uiso  ? C
   C113       1.0     0.337797     0.744740     0.294408    Uiso  ? C
   C114       1.0     0.332196     0.708454     0.338732    Uiso  ? C
   C115       1.0     0.365308     0.716937     0.382833    Uiso  ? C
   C116       1.0     0.369492     0.888485     0.279321    Uiso  ? C
   C117       1.0     0.399179     0.897682     0.325958    Uiso  ? C
   C118       1.0     0.365824     0.793583     0.298404    Uiso  ? C
   C119       1.0     0.355917     0.836611     0.261987    Uiso  ? C
   C120       1.0     0.365246     0.988022     0.351830    Uiso  ? C
   C121       1.0     0.398170     0.761978     0.384753    Uiso  ? C
   C122       1.0     0.470681     0.861519     0.380510    Uiso  ? C
   C123       1.0     0.424041     0.852319     0.350821    Uiso  ? C
   C124       1.0     0.451595     0.956420     0.384177    Uiso  ? C
   C125       1.0     0.488004     0.913378     0.394074    Uiso  ? C
   C126       1.0     0.405279     0.948184     0.351726    Uiso  ? C
   C127       1.0     0.398273     0.801815     0.344721    Uiso  ? C
   C128       1.0     0.552603     0.996935     0.483076    Uiso  ? C
   C129       1.0     0.615306     0.867168     0.466937    Uiso  ? C
   C130       1.0     0.587799     0.955594     0.494743    Uiso  ? C
   C131       1.0     0.537159     0.919084     0.422094    Uiso  ? C
   C132       1.0     0.582201     0.911262     0.458455    Uiso  ? C
   C133       1.0     0.216937     0.117168     0.634693    Uiso  ? C
   C134       1.0     0.244744     0.205593     0.662200    Uiso  ? C
   C135       1.0     0.208455     0.161262     0.667800    Uiso  ? C
   C136       1.0     0.233075     0.246937     0.697397    Uiso  ? C
   C137       1.0     0.172095     0.169085     0.712841    Uiso  ? C
   C138       1.0     0.261978     0.115247     0.601829    Uiso  ? C
   C139       1.0     0.293581     0.201594     0.634176    Uiso  ? C
   C140       1.0     0.301816     0.155280     0.601727    Uiso  ? C
   C141       1.0     0.336626     0.238002     0.644071    Uiso  ? C
   C142       1.0     0.488022     0.148171     0.634753    Uiso  ? C
   C143       1.0     0.388482     0.220680     0.630509    Uiso  ? C
   C144       1.0     0.361519     0.119491     0.529320    Uiso  ? C
   C145       1.0     0.352320     0.149178     0.575958    Uiso  ? C
   C146       1.0     0.397681     0.174042     0.600822    Uiso  ? C
   C147       1.0     0.456420     0.115823     0.548405    Uiso  ? C
   C148       1.0     0.413377     0.105927     0.511996    Uiso  ? C
   C149       1.0     0.448185     0.148273     0.594720    Uiso  ? C
   C150       1.0     0.533063     0.115306     0.632831    Uiso  ? C
   C151       1.0     0.505256     0.087800     0.544407    Uiso  ? C
   C152       1.0     0.577906     0.037159     0.580916    Uiso  ? C
   C153       1.0     0.516924     0.052603     0.503065    Uiso  ? C
   C154       1.0     0.541545     0.082203     0.588740    Uiso  ? C
   C155       1.0     0.330917     0.287159     0.672094    Uiso  ? C
   C156       1.0     0.253067     0.302600     0.733073    Uiso  ? C
   C157       1.0     0.294406     0.337800     0.744743    Uiso  ? C
   C158       1.0     0.338740     0.332202     0.708455    Uiso  ? C
   C159       1.0     0.382831     0.365306     0.716937    Uiso  ? C
   C160       1.0     0.996936     0.483076     0.552602    Uiso  ? C
   C161       1.0     0.867169     0.466937     0.615305    Uiso  ? C
   C162       1.0     0.955594     0.494745     0.587801    Uiso  ? C
   C163       1.0     0.919086     0.422095     0.537158    Uiso  ? C
   C164       1.0     0.911264     0.458454     0.582199    Uiso  ? C
   C165       1.0     0.115306     0.632832     0.533063    Uiso  ? C
   C166       1.0     0.087802     0.544407     0.505255    Uiso  ? C
   C167       1.0     0.037160     0.580916     0.577905    Uiso  ? C
   C168       1.0     0.052605     0.503064     0.516922    Uiso  ? C
   C169       1.0     0.082205     0.588742     0.541544    Uiso  ? C
   C170       1.0     0.865247     0.511979     0.648170    Uiso  ? C
   C171       1.0     0.970681     0.638482     0.619490    Uiso  ? C
   C172       1.0     0.924043     0.647681     0.649177    Uiso  ? C
   C173       1.0     0.951595     0.543580     0.615823    Uiso  ? C
   C174       1.0     0.988006     0.586621     0.605924    Uiso  ? C
   C175       1.0     0.905280     0.551816     0.648272    Uiso  ? C
   C176       1.0     0.898171     0.738022     0.615245    Uiso  ? C
   C177       1.0     0.898273     0.698185     0.655279    Uiso  ? C
   C178       1.0     0.869492     0.611520     0.720680    Uiso  ? C
   C179       1.0     0.899179     0.602320     0.674041    Uiso  ? C
   C180       1.0     0.855928     0.663378     0.738003    Uiso  ? C
   C181       1.0     0.865824     0.706421     0.701593    Uiso  ? C
   C182       1.0     0.648171     0.865247     0.511978    Uiso  ? C
   C183       1.0     0.619491     0.970680     0.638481    Uiso  ? C
   C184       1.0     0.649179     0.924042     0.647680    Uiso  ? C
   C185       1.0     0.615823     0.951595     0.543580    Uiso  ? C
   C186       1.0     0.605925     0.988005     0.586621    Uiso  ? C
   C187       1.0     0.648273     0.905280     0.551815    Uiso  ? C
   C188       1.0     0.720680     0.869491     0.611518    Uiso  ? C
   C189       1.0     0.674042     0.899179     0.602319    Uiso  ? C
   C190       1.0     0.738000     0.855933     0.663370    Uiso  ? C
   C191       1.0     0.615247     0.898171     0.738021    Uiso  ? C
   C192       1.0     0.655280     0.898274     0.698184    Uiso  ? C
   C193       1.0     0.701595     0.865824     0.706419    Uiso  ? C
   C194       1.0     0.865306     0.783064     0.617167    Uiso  ? C
   C195       1.0     0.832202     0.791546     0.661259    Uiso  ? C
   C196       1.0     0.837799     0.755257     0.705594    Uiso  ? C
   C197       1.0     0.787160     0.827906     0.669083    Uiso  ? C
   C198       1.0     0.802600     0.766928     0.746930    Uiso  ? C
   C199       1.0     0.134753     0.011979     0.851830    Uiso  ? C
   C200       1.0     0.101830     0.238022     0.884753    Uiso  ? C
   C201       1.0     0.029319     0.138480     0.880509    Uiso  ? C
   C202       1.0     0.130508     0.111517     0.779321    Uiso  ? C
   C203       1.0     0.100821     0.102319     0.825958    Uiso  ? C
   C204       1.0     0.075957     0.147681     0.850822    Uiso  ? C
   C205       1.0     0.048405     0.043579     0.884176    Uiso  ? C
   C206       1.0     0.134176     0.206420     0.798405    Uiso  ? C
   C207       1.0     0.012000     0.086629     0.894069    Uiso  ? C
   C208       1.0     0.144075     0.163380     0.761994    Uiso  ? C
   C209       1.0     0.094719     0.051815     0.851728    Uiso  ? C
   C210       1.0     0.101727     0.198185     0.844720    Uiso  ? C
   C211       1.0     0.884695     0.132832     0.966938    Uiso  ? C
   C212       1.0     0.912201     0.044403     0.994742    Uiso  ? C
   C213       1.0     0.962838     0.080915     0.922095    Uiso  ? C
   C214       1.0     0.917798     0.088739     0.958455    Uiso  ? C
   C215       1.0     0.947396     0.003062     0.983074    Uiso  ? C
   C216       1.0     0.134695     0.283064     0.882830    Uiso  ? C
   C217       1.0     0.162194     0.255251     0.794407    Uiso  ? C
   C218       1.0     0.197394     0.266919     0.753059    Uiso  ? C
   C219       1.0     0.167796     0.291544     0.838741    Uiso  ? C
   C220       1.0     0.212841     0.327906     0.830914    Uiso  ? C
   C221       1.0     0.279320     0.369492     0.888482    Uiso  ? C
   C222       1.0     0.325958     0.399178     0.897680    Uiso  ? C
   C223       1.0     0.298405     0.365824     0.793579    Uiso  ? C
   C224       1.0     0.261996     0.355928     0.836623    Uiso  ? C
   C225       1.0     0.351829     0.365245     0.988020    Uiso  ? C
   C226       1.0     0.384754     0.398171     0.761978    Uiso  ? C
   C227       1.0     0.380511     0.470679     0.861518    Uiso  ? C
   C228       1.0     0.350824     0.424043     0.852320    Uiso  ? C
   C229       1.0     0.384181     0.451594     0.956425    Uiso  ? C
   C230       1.0     0.394072     0.487998     0.913372    Uiso  ? C
   C231       1.0     0.351727     0.405278     0.948185    Uiso  ? C
   C232       1.0     0.344720     0.398273     0.801815    Uiso  ? C
   C233       1.0     0.483081     0.552635     0.996951    Uiso  ? C
   C234       1.0     0.466941     0.615306     0.867165    Uiso  ? C
   C235       1.0     0.494730     0.587796     0.955596    Uiso  ? C
   C236       1.0     0.422100     0.537157     0.919083    Uiso  ? C
   C237       1.0     0.458458     0.582196     0.911276    Uiso  ? C
   C238       1.0     0.511978     0.648167     0.865248    Uiso  ? C
   C239       1.0     0.638491     0.619495     0.970681    Uiso  ? C
   C240       1.0     0.647684     0.649178     0.924043    Uiso  ? C
   C241       1.0     0.543586     0.615826     0.951601    Uiso  ? C
   C242       1.0     0.586632     0.605937     0.988002    Uiso  ? C
   C243       1.0     0.551815     0.648273     0.905277    Uiso  ? C
   C244       1.0     0.738025     0.615247     0.898169    Uiso  ? C
   C245       1.0     0.698182     0.655279     0.898275    Uiso  ? C
   C246       1.0     0.611521     0.720685     0.869487    Uiso  ? C
   C247       1.0     0.602318     0.674037     0.899181    Uiso  ? C
   C248       1.0     0.663378     0.738004     0.855925    Uiso  ? C
   C249       1.0     0.706424     0.701600     0.865818    Uiso  ? C
   C250       1.0     0.783064     0.617169     0.865306    Uiso  ? C
   C251       1.0     0.791547     0.661264     0.832199    Uiso  ? C
   C252       1.0     0.755253     0.705595     0.837803    Uiso  ? C
   C253       1.0     0.827905     0.669087     0.787159    Uiso  ? C
   C254       1.0     0.766919     0.746939     0.802606    Uiso  ? C
   C255       1.0     0.132831     0.966937     0.884695    Uiso  ? C
   C256       1.0     0.044406     0.994745     0.912198    Uiso  ? C
   C257       1.0     0.080915     0.922095     0.962842    Uiso  ? C
   C258       1.0     0.088736     0.958454     0.917802    Uiso  ? C
   C259       1.0     0.003062     0.983074     0.947395    Uiso  ? C
   C260       1.0     0.617169     0.865307     0.783063    Uiso  ? C
   C261       1.0     0.661262     0.832202     0.791544    Uiso  ? C
   C262       1.0     0.705594     0.837801     0.755255    Uiso  ? C
   C263       1.0     0.669084     0.787159     0.827905    Uiso  ? C
   C264       1.0     0.746936     0.802606     0.766923    Uiso  ? C
   H1         1.0     0.636146     0.189002     0.082940    Uiso  ? H
   H2         1.0     0.921116     0.077496     0.231784    Uiso  ? H
   H3         1.0     0.827498     0.171117     0.018218    Uiso  ? H
   H4         1.0     0.894240     0.005033     0.172749    Uiso  ? H
   H5         1.0     0.755035     0.144238     0.077252    Uiso  ? H
   H6         1.0     0.386145     0.332938     0.060997    Uiso  ? H
   H7         1.0     0.577496     0.268216     0.078884    Uiso  ? H
   H8         1.0     0.505032     0.327252     0.105761    Uiso  ? H
   H9         1.0     0.644240     0.422748     0.244964    Uiso  ? H
   H10        1.0     0.671116     0.481781     0.172501    Uiso  ? H
   H11        1.0     0.082939     0.636145     0.189002    Uiso  ? H
   H12        1.0     0.667061     0.560994     0.113849    Uiso  ? H
   H13        1.0     0.231783     0.921116     0.077496    Uiso  ? H
   H14        1.0     0.018218     0.827497     0.171117    Uiso  ? H
   H15        1.0     0.077252     0.755034     0.144239    Uiso  ? H
   H16        1.0     0.172749     0.894240     0.005034    Uiso  ? H
   H17        1.0     0.310998     0.917061     0.136146    Uiso  ? H
   H18        1.0     0.939004     0.886146     0.167061    Uiso  ? H
   H19        1.0     0.332940     0.060998     0.386145    Uiso  ? H
   H20        1.0     0.917060     0.136146     0.310998    Uiso  ? H
   H21        1.0     0.060998     0.386145     0.332939    Uiso  ? H
   H22        1.0     0.689002     0.417060     0.363855    Uiso  ? H
   H23        1.0     0.981783     0.327496     0.328883    Uiso  ? H
   H24        1.0     0.922749     0.255034     0.355761    Uiso  ? H
   H25        1.0     0.768217     0.421117     0.422505    Uiso  ? H
   H26        1.0     0.827251     0.394240     0.494966    Uiso  ? H
   H27        1.0     0.078884     0.577495     0.268217    Uiso  ? H
   H28        1.0     0.105761     0.505034     0.327252    Uiso  ? H
   H29        1.0     0.244966     0.644240     0.422748    Uiso  ? H
   H30        1.0     0.172504     0.671117     0.481783    Uiso  ? H
   H31        1.0     0.363855     0.689002     0.417060    Uiso  ? H
   H32        1.0     0.355761     0.922748     0.255034    Uiso  ? H
   H33        1.0     0.328883     0.981783     0.327496    Uiso  ? H
   H34        1.0     0.422504     0.768217     0.421116    Uiso  ? H
   H35        1.0     0.494966     0.827252     0.394240    Uiso  ? H
   H36        1.0     0.613855     0.832940     0.439002    Uiso  ? H
   H37        1.0     0.189002     0.082939     0.636145    Uiso  ? H
   H38        1.0     0.268217     0.078883     0.577495    Uiso  ? H
   H39        1.0     0.327252     0.105761     0.505034    Uiso  ? H
   H40        1.0     0.422749     0.244966     0.644240    Uiso  ? H
   H41        1.0     0.481783     0.172504     0.671116    Uiso  ? H
   H42        1.0     0.560998     0.113855     0.667060    Uiso  ? H
   H43        1.0     0.417060     0.363855     0.689002    Uiso  ? H
   H44        1.0     0.832940     0.439002     0.613855    Uiso  ? H
   H45        1.0     0.113854     0.667060     0.560998    Uiso  ? H
   H46        1.0     0.828884     0.518217     0.672504    Uiso  ? H
   H47        1.0     0.922505     0.731784     0.578882    Uiso  ? H
   H48        1.0     0.994967     0.672749     0.605760    Uiso  ? H
   H49        1.0     0.855761     0.577252     0.744965    Uiso  ? H
   H50        1.0     0.672504     0.828883     0.518217    Uiso  ? H
   H51        1.0     0.744966     0.855761     0.577251    Uiso  ? H
   H52        1.0     0.578884     0.922505     0.731783    Uiso  ? H
   H53        1.0     0.605760     0.994966     0.672748    Uiso  ? H
   H54        1.0     0.863855     0.810998     0.582938    Uiso  ? H
   H55        1.0     0.077496     0.231784     0.921116    Uiso  ? H
   H56        1.0     0.171116     0.018218     0.827497    Uiso  ? H
   H57        1.0     0.005033     0.172748     0.894239    Uiso  ? H
   H58        1.0     0.144239     0.077251     0.755034    Uiso  ? H
   H59        1.0     0.886148     0.167060     0.939004    Uiso  ? H
   H60        1.0     0.136146     0.310999     0.917060    Uiso  ? H
   H61        1.0     0.327497     0.328883     0.981782    Uiso  ? H
   H62        1.0     0.255034     0.355762     0.922749    Uiso  ? H
   H63        1.0     0.421117     0.422505     0.768216    Uiso  ? H
   H64        1.0     0.394241     0.494966     0.827253    Uiso  ? H
   H65        1.0     0.439004     0.613851     0.832940    Uiso  ? H
   H66        1.0     0.518217     0.672503     0.828883    Uiso  ? H
   H67        1.0     0.731785     0.578885     0.922503    Uiso  ? H
   H68        1.0     0.672749     0.605764     0.994972    Uiso  ? H
   H69        1.0     0.577252     0.744964     0.855759    Uiso  ? H
   H70        1.0     0.811000     0.582942     0.863854    Uiso  ? H
   H71        1.0     0.167060     0.939003     0.886147    Uiso  ? H
   H72        1.0     0.582940     0.863855     0.810998    Uiso  ? H
   N1         1.0     0.723733     0.191228     0.220069    Uiso  ? N
   N2         1.0     0.473708     0.470070     0.058771    Uiso  ? N
   N3         1.0     0.220054     0.723736     0.191226    Uiso  ? N
   N4         1.0     0.529892     0.558727     0.026284    Uiso  ? N
   N5         1.0     0.308764     0.779934     0.223739    Uiso  ? N
   N6         1.0     0.941235     0.973725     0.029922    Uiso  ? N
   N7         1.0     0.470062     0.058767     0.473727    Uiso  ? N
   N8         1.0     0.779918     0.223738     0.308771    Uiso  ? N
   N9         1.0     0.058765     0.473728     0.470070    Uiso  ? N
   N10        1.0     0.691240     0.279928     0.276277    Uiso  ? N
   N11        1.0     0.276263     0.691233     0.279936    Uiso  ? N
   N12        1.0     0.526267     0.970066     0.441231    Uiso  ? N
   N13        1.0     0.191230     0.220066     0.723733    Uiso  ? N
   N14        1.0     0.558770     0.026264     0.529933    Uiso  ? N
   N15        1.0     0.279930     0.276272     0.691235    Uiso  ? N
   N16        1.0     0.970056     0.441221     0.526264    Uiso  ? N
   N17        1.0     0.026262     0.529931     0.558775    Uiso  ? N
   N18        1.0     0.776275     0.808762     0.720074    Uiso  ? N
   N19        1.0     0.973728     0.029923     0.941236    Uiso  ? N
   N20        1.0     0.223740     0.308780     0.779929    Uiso  ? N
   N21        1.0     0.441230     0.526258     0.970078    Uiso  ? N
   N22        1.0     0.808779     0.720065     0.776265    Uiso  ? N
   N23        1.0     0.029945     0.941220     0.973736    Uiso  ? N
   N24        1.0     0.720068     0.776264     0.808771    Uiso  ? N
