
#======================================================================
# CRYSTAL DATA
#----------------------------------------------------------------------
data_VESTA_phase_1

_chemical_name_common                  'POSCAR file written by OVITO Basic 3.8'
_cell_length_a                         23.787800
_cell_length_b                         23.787800
_cell_length_c                         23.787800
_cell_angle_alpha                      90.000000
_cell_angle_beta                       90.000000
_cell_angle_gamma                      90.000000
_cell_volume                           13460.550642
_space_group_name_H-M_alt              'P 1'
_space_group_IT_number                 1

loop_
_space_group_symop_operation_xyz
   'x, y, z'

loop_
   _atom_site_label
   _atom_site_occupancy
   _atom_site_fract_x
   _atom_site_fract_y
   _atom_site_fract_z
   _atom_site_adp_type
   _atom_site_U_iso_or_equiv
   _atom_site_type_symbol
   C1         1.0     0.605085     0.258251     0.104012    Uiso  ? C
   C2         1.0     0.639495     0.212632     0.109368    Uiso  ? C
   C3         1.0     0.662495     0.215630     0.256206    Uiso  ? C
   C4         1.0     0.636038     0.288340     0.194702    Uiso  ? C
   C5         1.0     0.650994     0.330744     0.233732    Uiso  ? C
   C6         1.0     0.604521     0.298457     0.145536    Uiso  ? C
   C7         1.0     0.673487     0.314596     0.284871    Uiso  ? C
   C8         1.0     0.855085     0.145987     0.008251    Uiso  ? C
   C9         1.0     0.895988     0.105085     0.241749    Uiso  ? C
   C10        1.0     0.890632     0.139495     0.287368    Uiso  ? C
   C11        1.0     0.891269     0.033619     0.135453    Uiso  ? C
   C12        1.0     0.783620     0.141268     0.114547    Uiso  ? C
   C13        1.0     0.831232     0.109560     0.102651    Uiso  ? C
   C14        1.0     0.859561     0.081231     0.147349    Uiso  ? C
   C15        1.0     0.704096     0.175485     0.242356    Uiso  ? C
   C16        1.0     0.757641     0.204099     0.324518    Uiso  ? C
   C17        1.0     0.675486     0.257643     0.295904    Uiso  ? C
   C18        1.0     0.715130     0.173486     0.185404    Uiso  ? C
   C19        1.0     0.743794     0.162495     0.284370    Uiso  ? C
   C20        1.0     0.886038     0.055297     0.038341    Uiso  ? C
   C21        1.0     0.805298     0.136038     0.211660    Uiso  ? C
   C22        1.0     0.900993     0.016267     0.080745    Uiso  ? C
   C23        1.0     0.766268     0.150994     0.169256    Uiso  ? C
   C24        1.0     0.674445     0.202967     0.155100    Uiso  ? C
   C25        1.0     0.844900     0.174444     0.297033    Uiso  ? C
   C26        1.0     0.854521     0.104463     0.048458    Uiso  ? C
   C27        1.0     0.854464     0.104521     0.201543    Uiso  ? C
   C28        1.0     0.814596     0.215133     0.326517    Uiso  ? C
   C29        1.0     0.104012     0.605085     0.258251    Uiso  ? C
   C30        1.0     0.109367     0.639495     0.212631    Uiso  ? C
   C31        1.0     0.256206     0.662494     0.215630    Uiso  ? C
   C32        1.0     0.194701     0.636038     0.288339    Uiso  ? C
   C33        1.0     0.233732     0.650994     0.330743    Uiso  ? C
   C34        1.0     0.145536     0.604521     0.298457    Uiso  ? C
   C35        1.0     0.645987     0.491748     0.144916    Uiso  ? C
   C36        1.0     0.640631     0.537367     0.110506    Uiso  ? C
   C37        1.0     0.389494     0.359367     0.037368    Uiso  ? C
   C38        1.0     0.533619     0.364546     0.108732    Uiso  ? C
   C39        1.0     0.641268     0.385452     0.216381    Uiso  ? C
   C40        1.0     0.609560     0.397348     0.168769    Uiso  ? C
   C41        1.0     0.581231     0.352651     0.140440    Uiso  ? C
   C42        1.0     0.507641     0.574517     0.045901    Uiso  ? C
   C43        1.0     0.454098     0.492358     0.074518    Uiso  ? C
   C44        1.0     0.465132     0.435403     0.076516    Uiso  ? C
   C45        1.0     0.564596     0.576516     0.034867    Uiso  ? C
   C46        1.0     0.465630     0.587505     0.006206    Uiso  ? C
   C47        1.0     0.493794     0.534369     0.087505    Uiso  ? C
   C48        1.0     0.412494     0.506205     0.034369    Uiso  ? C
   C49        1.0     0.555297     0.461659     0.113963    Uiso  ? C
   C50        1.0     0.516266     0.419255     0.099006    Uiso  ? C
   C51        1.0     0.594899     0.547032     0.075556    Uiso  ? C
   C52        1.0     0.424443     0.405099     0.047033    Uiso  ? C
   C53        1.0     0.604463     0.451542     0.145479    Uiso  ? C
   C54        1.0     0.702967     0.344899     0.325556    Uiso  ? C
   C55        1.0     0.284870     0.673487     0.314595    Uiso  ? C
   C56        1.0     0.241748     0.895988     0.105085    Uiso  ? C
   C57        1.0     0.008251     0.855085     0.145989    Uiso  ? C
   C58        1.0     0.287368     0.890632     0.139495    Uiso  ? C
   C59        1.0     0.114547     0.783620     0.141269    Uiso  ? C
   C60        1.0     0.135452     0.891269     0.033620    Uiso  ? C
   C61        1.0     0.147348     0.859561     0.081232    Uiso  ? C
   C62        1.0     0.102651     0.831232     0.109561    Uiso  ? C
   C63        1.0     0.295904     0.675486     0.257643    Uiso  ? C
   C64        1.0     0.242356     0.704097     0.175485    Uiso  ? C
   C65        1.0     0.324515     0.757643     0.204096    Uiso  ? C
   C66        1.0     0.185404     0.715129     0.173485    Uiso  ? C
   C67        1.0     0.284369     0.743794     0.162494    Uiso  ? C
   C68        1.0     0.211660     0.805298     0.136038    Uiso  ? C
   C69        1.0     0.038339     0.886037     0.055299    Uiso  ? C
   C70        1.0     0.169256     0.766268     0.150993    Uiso  ? C
   C71        1.0     0.080743     0.900993     0.016268    Uiso  ? C
   C72        1.0     0.297033     0.844900     0.174445    Uiso  ? C
   C73        1.0     0.155100     0.674444     0.202966    Uiso  ? C
   C74        1.0     0.201542     0.854464     0.104521    Uiso  ? C
   C75        1.0     0.048457     0.854521     0.104465    Uiso  ? C
   C76        1.0     0.326514     0.814596     0.215130    Uiso  ? C
   C77        1.0     0.358731     0.885453     0.283619    Uiso  ? C
   C78        1.0     0.390439     0.897349     0.331231    Uiso  ? C
   C79        1.0     0.337506     0.715631     0.243793    Uiso  ? C
   C80        1.0     0.363962     0.788340     0.305298    Uiso  ? C
   C81        1.0     0.349006     0.830744     0.266268    Uiso  ? C
   C82        1.0     0.962631     0.889494     0.140633    Uiso  ? C
   C83        1.0     0.925484     0.954096     0.007644    Uiso  ? C
   C84        1.0     0.923485     0.965129     0.064596    Uiso  ? C
   C85        1.0     0.952966     0.924443     0.094900    Uiso  ? C
   C86        1.0     0.258251     0.104013     0.605086    Uiso  ? C
   C87        1.0     0.212631     0.109370     0.639496    Uiso  ? C
   C88        1.0     0.215631     0.256205     0.662496    Uiso  ? C
   C89        1.0     0.288341     0.194702     0.636038    Uiso  ? C
   C90        1.0     0.330745     0.233734     0.650995    Uiso  ? C
   C91        1.0     0.298457     0.145537     0.604521    Uiso  ? C
   C92        1.0     0.491748     0.144915     0.645988    Uiso  ? C
   C93        1.0     0.359368     0.037369     0.389494    Uiso  ? C
   C94        1.0     0.537368     0.110506     0.640632    Uiso  ? C
   C95        1.0     0.385453     0.216380     0.641269    Uiso  ? C
   C96        1.0     0.364547     0.108731     0.533620    Uiso  ? C
   C97        1.0     0.352651     0.140439     0.581232    Uiso  ? C
   C98        1.0     0.397349     0.168768     0.609561    Uiso  ? C
   C99        1.0     0.574518     0.045902     0.507641    Uiso  ? C
   C100       1.0     0.492359     0.074519     0.454099    Uiso  ? C
   C101       1.0     0.576517     0.034868     0.564596    Uiso  ? C
   C102       1.0     0.435404     0.076518     0.465132    Uiso  ? C
   C103       1.0     0.534370     0.087506     0.493795    Uiso  ? C
   C104       1.0     0.506206     0.034371     0.412494    Uiso  ? C
   C105       1.0     0.587506     0.006207     0.465630    Uiso  ? C
   C106       1.0     0.461660     0.113962     0.555298    Uiso  ? C
   C107       1.0     0.419256     0.099006     0.516267    Uiso  ? C
   C108       1.0     0.405100     0.047034     0.424443    Uiso  ? C
   C109       1.0     0.547033     0.075556     0.594900    Uiso  ? C
   C110       1.0     0.451542     0.145479     0.604464    Uiso  ? C
   C111       1.0     0.885453     0.283619     0.358732    Uiso  ? C
   C112       1.0     0.897349     0.331232     0.390440    Uiso  ? C
   C113       1.0     0.715630     0.243794     0.337506    Uiso  ? C
   C114       1.0     0.788340     0.305298     0.363963    Uiso  ? C
   C115       1.0     0.830744     0.266267     0.349007    Uiso  ? C
   C116       1.0     0.144916     0.645987     0.491748    Uiso  ? C
   C117       1.0     0.110506     0.640632     0.537368    Uiso  ? C
   C118       1.0     0.037368     0.389494     0.359367    Uiso  ? C
   C119       1.0     0.108732     0.533620     0.364547    Uiso  ? C
   C120       1.0     0.216380     0.641269     0.385452    Uiso  ? C
   C121       1.0     0.168768     0.609561     0.397348    Uiso  ? C
   C122       1.0     0.140439     0.581232     0.352651    Uiso  ? C
   C123       1.0     0.074515     0.454096     0.492356    Uiso  ? C
   C124       1.0     0.045904     0.507643     0.574515    Uiso  ? C
   C125       1.0     0.034870     0.564596     0.576514    Uiso  ? C
   C126       1.0     0.076515     0.465129     0.435404    Uiso  ? C
   C127       1.0     0.034370     0.412495     0.506206    Uiso  ? C
   C128       1.0     0.006207     0.465631     0.587506    Uiso  ? C
   C129       1.0     0.087506     0.493794     0.534369    Uiso  ? C
   C130       1.0     0.113963     0.555298     0.461660    Uiso  ? C
   C131       1.0     0.099007     0.516267     0.419255    Uiso  ? C
   C132       1.0     0.075556     0.594900     0.547032    Uiso  ? C
   C133       1.0     0.047034     0.424444     0.405100    Uiso  ? C
   C134       1.0     0.145479     0.604464     0.451542    Uiso  ? C
   C135       1.0     0.758252     0.395988     0.394916    Uiso  ? C
   C136       1.0     0.854013     0.508251     0.644915    Uiso  ? C
   C137       1.0     0.991749     0.355084     0.354012    Uiso  ? C
   C138       1.0     0.712632     0.390632     0.360505    Uiso  ? C
   C139       1.0     0.859369     0.462632     0.610505    Uiso  ? C
   C140       1.0     0.966381     0.635453     0.608732    Uiso  ? C
   C141       1.0     0.864548     0.391269     0.466380    Uiso  ? C
   C142       1.0     0.852651     0.359561     0.418769    Uiso  ? C
   C143       1.0     0.918769     0.647349     0.640440    Uiso  ? C
   C144       1.0     0.992358     0.425485     0.545903    Uiso  ? C
   C145       1.0     0.935405     0.423486     0.534870    Uiso  ? C
   C146       1.0     0.944702     0.538340     0.613962    Uiso  ? C
   C147       1.0     0.961661     0.386038     0.444702    Uiso  ? C
   C148       1.0     0.983733     0.580744     0.599006    Uiso  ? C
   C149       1.0     0.919257     0.400994     0.483732    Uiso  ? C
   C150       1.0     0.905101     0.452967     0.575555    Uiso  ? C
   C151       1.0     0.798458     0.354464     0.395479    Uiso  ? C
   C152       1.0     0.895536     0.548457     0.645479    Uiso  ? C
   C153       1.0     0.951543     0.354521     0.395536    Uiso  ? C
   C154       1.0     0.325555     0.702967     0.344899    Uiso  ? C
   C155       1.0     0.354012     0.991749     0.355084    Uiso  ? C
   C156       1.0     0.394915     0.758252     0.395987    Uiso  ? C
   C157       1.0     0.644915     0.854013     0.508251    Uiso  ? C
   C158       1.0     0.360505     0.712632     0.390632    Uiso  ? C
   C159       1.0     0.610505     0.859369     0.462632    Uiso  ? C
   C160       1.0     0.466380     0.864548     0.391269    Uiso  ? C
   C161       1.0     0.608732     0.966381     0.635452    Uiso  ? C
   C162       1.0     0.418768     0.852651     0.359561    Uiso  ? C
   C163       1.0     0.640440     0.918769     0.647349    Uiso  ? C
   C164       1.0     0.545903     0.992358     0.425485    Uiso  ? C
   C165       1.0     0.534870     0.935405     0.423486    Uiso  ? C
   C166       1.0     0.444702     0.961661     0.386037    Uiso  ? C
   C167       1.0     0.613962     0.944703     0.538340    Uiso  ? C
   C168       1.0     0.483732     0.919257     0.400993    Uiso  ? C
   C169       1.0     0.599006     0.983733     0.580744    Uiso  ? C
   C170       1.0     0.575555     0.905101     0.452967    Uiso  ? C
   C171       1.0     0.395536     0.951543     0.354520    Uiso  ? C
   C172       1.0     0.395479     0.798458     0.354464    Uiso  ? C
   C173       1.0     0.645479     0.895536     0.548457    Uiso  ? C
   C174       1.0     0.894916     0.741748     0.604013    Uiso  ? C
   C175       1.0     0.860506     0.787368     0.609368    Uiso  ? C
   C176       1.0     0.716380     0.858731     0.614547    Uiso  ? C
   C177       1.0     0.668769     0.890440     0.602651    Uiso  ? C
   C178       1.0     0.825556     0.797033     0.655101    Uiso  ? C
   C179       1.0     0.895480     0.701542     0.645537    Uiso  ? C
   C180       1.0     0.314596     0.284869     0.673483    Uiso  ? C
   C181       1.0     0.145988     0.008250     0.855085    Uiso  ? C
   C182       1.0     0.105085     0.241749     0.895988    Uiso  ? C
   C183       1.0     0.139495     0.287369     0.890630    Uiso  ? C
   C184       1.0     0.033620     0.135451     0.891270    Uiso  ? C
   C185       1.0     0.141269     0.114548     0.783621    Uiso  ? C
   C186       1.0     0.109561     0.102650     0.831233    Uiso  ? C
   C187       1.0     0.081232     0.147348     0.859562    Uiso  ? C
   C188       1.0     0.204099     0.324522     0.757639    Uiso  ? C
   C189       1.0     0.257641     0.295905     0.675479    Uiso  ? C
   C190       1.0     0.175485     0.242360     0.704102    Uiso  ? C
   C191       1.0     0.173486     0.185405     0.715135    Uiso  ? C
   C192       1.0     0.162495     0.284374     0.743793    Uiso  ? C
   C193       1.0     0.055298     0.038339     0.886037    Uiso  ? C
   C194       1.0     0.136038     0.211662     0.805299    Uiso  ? C
   C195       1.0     0.016267     0.080742     0.900994    Uiso  ? C
   C196       1.0     0.150994     0.169257     0.766268    Uiso  ? C
   C197       1.0     0.202968     0.155102     0.674445    Uiso  ? C
   C198       1.0     0.174445     0.297035     0.844898    Uiso  ? C
   C199       1.0     0.104464     0.048456     0.854521    Uiso  ? C
   C200       1.0     0.104521     0.201543     0.854465    Uiso  ? C
   C201       1.0     0.215132     0.326520     0.814595    Uiso  ? C
   C202       1.0     0.344901     0.325557     0.702966    Uiso  ? C
   C203       1.0     0.889495     0.140631     0.962632    Uiso  ? C
   C204       1.0     0.954098     0.007640     0.925482    Uiso  ? C
   C205       1.0     0.965132     0.064595     0.923484    Uiso  ? C
   C206       1.0     0.924444     0.094898     0.952968    Uiso  ? C
   C207       1.0     0.283620     0.358729     0.885452    Uiso  ? C
   C208       1.0     0.331231     0.390438     0.897348    Uiso  ? C
   C209       1.0     0.243795     0.337510     0.715627    Uiso  ? C
   C210       1.0     0.305299     0.363962     0.788339    Uiso  ? C
   C211       1.0     0.266268     0.349006     0.830743    Uiso  ? C
   C212       1.0     0.355084     0.354011     0.991748    Uiso  ? C
   C213       1.0     0.508251     0.644915     0.854012    Uiso  ? C
   C214       1.0     0.395988     0.394916     0.758252    Uiso  ? C
   C215       1.0     0.462632     0.610505     0.859368    Uiso  ? C
   C216       1.0     0.390634     0.360506     0.712632    Uiso  ? C
   C217       1.0     0.391268     0.466380     0.864547    Uiso  ? C
   C218       1.0     0.635453     0.608732     0.966381    Uiso  ? C
   C219       1.0     0.647349     0.640440     0.918769    Uiso  ? C
   C220       1.0     0.359560     0.418768     0.852651    Uiso  ? C
   C221       1.0     0.425485     0.545903     0.992356    Uiso  ? C
   C222       1.0     0.423486     0.534869     0.935404    Uiso  ? C
   C223       1.0     0.386037     0.444701     0.961660    Uiso  ? C
   C224       1.0     0.538340     0.613961     0.944702    Uiso  ? C
   C225       1.0     0.400993     0.483731     0.919256    Uiso  ? C
   C226       1.0     0.580744     0.599005     0.983733    Uiso  ? C
   C227       1.0     0.452967     0.575554     0.905100    Uiso  ? C
   C228       1.0     0.354520     0.395535     0.951542    Uiso  ? C
   C229       1.0     0.548457     0.645479     0.895536    Uiso  ? C
   C230       1.0     0.354464     0.395479     0.798457    Uiso  ? C
   C231       1.0     0.741748     0.604013     0.894916    Uiso  ? C
   C232       1.0     0.787368     0.609368     0.860506    Uiso  ? C
   C233       1.0     0.858732     0.614547     0.716381    Uiso  ? C
   C234       1.0     0.890440     0.602651     0.668769    Uiso  ? C
   C235       1.0     0.797033     0.655101     0.825557    Uiso  ? C
   C236       1.0     0.701542     0.645537     0.895480    Uiso  ? C
   C237       1.0     0.140632     0.962631     0.889495    Uiso  ? C
   C238       1.0     0.007640     0.925481     0.954099    Uiso  ? C
   C239       1.0     0.064595     0.923482     0.965133    Uiso  ? C
   C240       1.0     0.094899     0.952966     0.924444    Uiso  ? C
   C241       1.0     0.604013     0.894916     0.741748    Uiso  ? C
   C242       1.0     0.609368     0.860506     0.787368    Uiso  ? C
   C243       1.0     0.614547     0.716381     0.858732    Uiso  ? C
   C244       1.0     0.602651     0.668769     0.890440    Uiso  ? C
   C245       1.0     0.655101     0.825556     0.797033    Uiso  ? C
   C246       1.0     0.645537     0.895479     0.701542    Uiso  ? C
   C247       1.0     0.795901     0.824518     0.742359    Uiso  ? C
   C248       1.0     0.742357     0.795903     0.824516    Uiso  ? C
   C249       1.0     0.824518     0.742359     0.795902    Uiso  ? C
   C250       1.0     0.685404     0.784870     0.826515    Uiso  ? C
   C251       1.0     0.826517     0.685404     0.784868    Uiso  ? C
   C252       1.0     0.784868     0.826517     0.685404    Uiso  ? C
   C253       1.0     0.965629     0.912493     0.993795    Uiso  ? C
   C254       1.0     0.837506     0.784370     0.756206    Uiso  ? C
   C255       1.0     0.993794     0.965628     0.912495    Uiso  ? C
   C256       1.0     0.756206     0.837506     0.784370    Uiso  ? C
   C257       1.0     0.912494     0.993793     0.965631    Uiso  ? C
   C258       1.0     0.784369     0.756206     0.837505    Uiso  ? C
   C259       1.0     0.711660     0.694702     0.863963    Uiso  ? C
   C260       1.0     0.863963     0.711660     0.694703    Uiso  ? C
   C261       1.0     0.694702     0.863962     0.711660    Uiso  ? C
   C262       1.0     0.669256     0.733733     0.849007    Uiso  ? C
   C263       1.0     0.849006     0.669256     0.733733    Uiso  ? C
   C264       1.0     0.733733     0.849006     0.669256    Uiso  ? C
   N1         1.0     0.657146     0.235054     0.201467    Uiso  ? N
   N2         1.0     0.798534     0.157140     0.264939    Uiso  ? N
   N3         1.0     0.201467     0.657145     0.235054    Uiso  ? N
   N4         1.0     0.548534     0.514938     0.092860    Uiso  ? N
   N5         1.0     0.407139     0.451465     0.014939    Uiso  ? N
   N6         1.0     0.264944     0.798533     0.157145    Uiso  ? N
   N7         1.0     0.342854     0.735054     0.298532    Uiso  ? N
   N8         1.0     0.985055     0.907143     0.048533    Uiso  ? N
   N9         1.0     0.235062     0.201466     0.657140    Uiso  ? N
   N10        1.0     0.451466     0.014940     0.407139    Uiso  ? N
   N11        1.0     0.514939     0.092861     0.548534    Uiso  ? N
   N12        1.0     0.735055     0.298532     0.342855    Uiso  ? N
   N13        1.0     0.092856     0.548533     0.514944    Uiso  ? N
   N14        1.0     0.014946     0.407145     0.451467    Uiso  ? N
   N15        1.0     0.951468     0.485056     0.592856    Uiso  ? N
   N16        1.0     0.592855     0.951468     0.485055    Uiso  ? N
   N17        1.0     0.157142     0.264941     0.798532    Uiso  ? N
   N18        1.0     0.907140     0.048533     0.985061    Uiso  ? N
   N19        1.0     0.298535     0.342864     0.735059    Uiso  ? N
   N20        1.0     0.485055     0.592854     0.951467    Uiso  ? N
   N21        1.0     0.048534     0.985059     0.907140    Uiso  ? N
   N22        1.0     0.764939     0.701466     0.842861    Uiso  ? N
   N23        1.0     0.842861     0.764939     0.701466    Uiso  ? N
   N24        1.0     0.701467     0.842857     0.764943    Uiso  ? N
   H1         1.0     0.581095     0.263892     0.065404    Uiso  ? H
   H2         1.0     0.391014     0.324878     0.067563    Uiso  ? H
   H3         1.0     0.641015     0.182437     0.074878    Uiso  ? H
   H4         1.0     0.508295     0.330035     0.092407    Uiso  ? H
   H5         1.0     0.934595     0.081095     0.236108    Uiso  ? H
   H6         1.0     0.831095     0.184595     0.013892    Uiso  ? H
   H7         1.0     0.925121     0.141014     0.317564    Uiso  ? H
   H8         1.0     0.907593     0.008295     0.169964    Uiso  ? H
   H9         1.0     0.758296     0.157593     0.080036    Uiso  ? H
   H10        1.0     0.986108     0.331095     0.315404    Uiso  ? H
   H11        1.0     0.065404     0.581095     0.263892    Uiso  ? H
   H12        1.0     0.074878     0.641015     0.182436    Uiso  ? H
   H13        1.0     0.067563     0.391014     0.324878    Uiso  ? H
   H14        1.0     0.092407     0.508296     0.330036    Uiso  ? H
   H15        1.0     0.657592     0.419963     0.241705    Uiso  ? H
   H16        1.0     0.684594     0.486108     0.168906    Uiso  ? H
   H17        1.0     0.675120     0.567563     0.108986    Uiso  ? H
   H18        1.0     0.236108     0.934595     0.081095    Uiso  ? H
   H19        1.0     0.013892     0.831095     0.184597    Uiso  ? H
   H20        1.0     0.317563     0.925121     0.141014    Uiso  ? H
   H21        1.0     0.080036     0.758296     0.157594    Uiso  ? H
   H22        1.0     0.169962     0.907595     0.008297    Uiso  ? H
   H23        1.0     0.315404     0.986108     0.331095    Uiso  ? H
   H24        1.0     0.342408     0.919964     0.258295    Uiso  ? H
   H25        1.0     0.932436     0.891014     0.175122    Uiso  ? H
   H26        1.0     0.263890     0.065406     0.581096    Uiso  ? H
   H27        1.0     0.182435     0.074882     0.641015    Uiso  ? H
   H28        1.0     0.324878     0.067564     0.391014    Uiso  ? H
   H29        1.0     0.330036     0.092406     0.508296    Uiso  ? H
   H30        1.0     0.419964     0.241704     0.657593    Uiso  ? H
   H31        1.0     0.919963     0.258295     0.342408    Uiso  ? H
   H32        1.0     0.241704     0.657593     0.419963    Uiso  ? H
   H33        1.0     0.763892     0.434595     0.418905    Uiso  ? H
   H34        1.0     0.682437     0.425121     0.358985    Uiso  ? H
   H35        1.0     0.824880     0.432436     0.608985    Uiso  ? H
   H36        1.0     0.830037     0.407594     0.491705    Uiso  ? H
   H37        1.0     0.168906     0.684595     0.486108    Uiso  ? H
   H38        1.0     0.108986     0.675121     0.567563    Uiso  ? H
   H39        1.0     0.418905     0.763892     0.434595    Uiso  ? H
   H40        1.0     0.608985     0.824880     0.432436    Uiso  ? H
   H41        1.0     0.358985     0.682436     0.425120    Uiso  ? H
   H42        1.0     0.491704     0.830038     0.407594    Uiso  ? H
   H43        1.0     0.668904     0.815405     0.513892    Uiso  ? H
   H44        1.0     0.918905     0.736108     0.565405    Uiso  ? H
   H45        1.0     0.858986     0.817563     0.574879    Uiso  ? H
   H46        1.0     0.991705     0.669964     0.592408    Uiso  ? H
   H47        1.0     0.741704     0.842407     0.580036    Uiso  ? H
   H48        1.0     0.081096     0.236110     0.934596    Uiso  ? H
   H49        1.0     0.184596     0.013891     0.831096    Uiso  ? H
   H50        1.0     0.141015     0.317564     0.925119    Uiso  ? H
   H51        1.0     0.008296     0.169962     0.907595    Uiso  ? H
   H52        1.0     0.157594     0.080037     0.758297    Uiso  ? H
   H53        1.0     0.331094     0.315404     0.986108    Uiso  ? H
   H54        1.0     0.486108     0.168905     0.684595    Uiso  ? H
   H55        1.0     0.567564     0.108986     0.675121    Uiso  ? H
   H56        1.0     0.891015     0.175120     0.932436    Uiso  ? H
   H57        1.0     0.258295     0.342405     0.919962    Uiso  ? H
   H58        1.0     0.434595     0.418906     0.763893    Uiso  ? H
   H59        1.0     0.425123     0.358987     0.682437    Uiso  ? H
   H60        1.0     0.432437     0.608985     0.824879    Uiso  ? H
   H61        1.0     0.407592     0.491704     0.830037    Uiso  ? H
   H62        1.0     0.815405     0.513892     0.668904    Uiso  ? H
   H63        1.0     0.736107     0.565405     0.918905    Uiso  ? H
   H64        1.0     0.817563     0.574879     0.858986    Uiso  ? H
   H65        1.0     0.842407     0.580036     0.741704    Uiso  ? H
   H66        1.0     0.669963     0.592408     0.991706    Uiso  ? H
   H67        1.0     0.175121     0.932436     0.891015    Uiso  ? H
   H68        1.0     0.513892     0.668905     0.815405    Uiso  ? H
   H69        1.0     0.565405     0.918906     0.736108    Uiso  ? H
   H70        1.0     0.574879     0.858986     0.817563    Uiso  ? H
   H71        1.0     0.580036     0.741705     0.842407    Uiso  ? H
   H72        1.0     0.592408     0.991705     0.669963    Uiso  ? H
