
#======================================================================
# CRYSTAL DATA
#----------------------------------------------------------------------
data_VESTA_phase_1

_chemical_name_common                  'POSCAR file written by OVITO Basic 3.8'
_cell_length_a                         23.875900
_cell_length_b                         23.875900
_cell_length_c                         23.875900
_cell_angle_alpha                      90.000000
_cell_angle_beta                       90.000000
_cell_angle_gamma                      90.000000
_cell_volume                           13610.662606
_space_group_name_H-M_alt              'P 1'
_space_group_IT_number                 1

loop_
_space_group_symop_operation_xyz
   'x, y, z'

loop_
   _atom_site_label
   _atom_site_occupancy
   _atom_site_fract_x
   _atom_site_fract_y
   _atom_site_fract_z
   _atom_site_adp_type
   _atom_site_U_iso_or_equiv
   _atom_site_type_symbol
   C1         1.0     0.619426     0.256918     0.106576    Uiso  ? C
   C2         1.0     0.652048     0.210305     0.116876    Uiso  ? C
   C3         1.0     0.634503     0.232782     0.211156    Uiso  ? C
   C4         1.0     0.665591     0.311779     0.289337    Uiso  ? C
   C5         1.0     0.661709     0.214085     0.258255    Uiso  ? C
   C6         1.0     0.628187     0.289026     0.197977    Uiso  ? C
   C7         1.0     0.644494     0.331232     0.236115    Uiso  ? C
   C8         1.0     0.608881     0.299678     0.144239    Uiso  ? C
   C9         1.0     0.869425     0.143423     0.006918    Uiso  ? C
   C10        1.0     0.893424     0.119426     0.243082    Uiso  ? C
   C11        1.0     0.883122     0.152048     0.289694    Uiso  ? C
   C12        1.0     0.890194     0.034377     0.135592    Uiso  ? C
   C13        1.0     0.784377     0.140195     0.114408    Uiso  ? C
   C14        1.0     0.834676     0.112887     0.102770    Uiso  ? C
   C15        1.0     0.862886     0.084677     0.147230    Uiso  ? C
   C16        1.0     0.699988     0.172645     0.246641    Uiso  ? C
   C17        1.0     0.753362     0.199986     0.327353    Uiso  ? C
   C18        1.0     0.672647     0.253363     0.300014    Uiso  ? C
   C19        1.0     0.788844     0.134503     0.267218    Uiso  ? C
   C20        1.0     0.710663     0.165591     0.188221    Uiso  ? C
   C21        1.0     0.741748     0.161709     0.285916    Uiso  ? C
   C22        1.0     0.878184     0.052023     0.039027    Uiso  ? C
   C23        1.0     0.802023     0.128186     0.210973    Uiso  ? C
   C24        1.0     0.894493     0.013884     0.081233    Uiso  ? C
   C25        1.0     0.763884     0.144494     0.168768    Uiso  ? C
   C26        1.0     0.858879     0.105760     0.049678    Uiso  ? C
   C27        1.0     0.855761     0.108880     0.200322    Uiso  ? C
   C28        1.0     0.106577     0.619425     0.256918    Uiso  ? C
   C29        1.0     0.116877     0.652048     0.210306    Uiso  ? C
   C30        1.0     0.211157     0.634502     0.232783    Uiso  ? C
   C31        1.0     0.289337     0.665592     0.311780    Uiso  ? C
   C32        1.0     0.258249     0.661709     0.214085    Uiso  ? C
   C33        1.0     0.197978     0.628184     0.289027    Uiso  ? C
   C34        1.0     0.236116     0.644493     0.331233    Uiso  ? C
   C35        1.0     0.144240     0.608879     0.299678    Uiso  ? C
   C36        1.0     0.643423     0.493082     0.130575    Uiso  ? C
   C37        1.0     0.633123     0.539694     0.097952    Uiso  ? C
   C38        1.0     0.402048     0.366877     0.039694    Uiso  ? C
   C39        1.0     0.534377     0.364407     0.109807    Uiso  ? C
   C40        1.0     0.640195     0.385591     0.215624    Uiso  ? C
   C41        1.0     0.612887     0.397230     0.165324    Uiso  ? C
   C42        1.0     0.584677     0.352769     0.137114    Uiso  ? C
   C43        1.0     0.503363     0.577353     0.050013    Uiso  ? C
   C44        1.0     0.449987     0.496638     0.077353    Uiso  ? C
   C45        1.0     0.538844     0.517217     0.115497    Uiso  ? C
   C46        1.0     0.384503     0.461157     0.017217    Uiso  ? C
   C47        1.0     0.460663     0.438220     0.084408    Uiso  ? C
   C48        1.0     0.561780     0.584408     0.039337    Uiso  ? C
   C49        1.0     0.464086     0.588291     0.008252    Uiso  ? C
   C50        1.0     0.491749     0.535914     0.088291    Uiso  ? C
   C51        1.0     0.411709     0.508253     0.035914    Uiso  ? C
   C52        1.0     0.552023     0.460972     0.121816    Uiso  ? C
   C53        1.0     0.513884     0.418767     0.105508    Uiso  ? C
   C54        1.0     0.605761     0.450322     0.141121    Uiso  ? C
   C55        1.0     0.243082     0.893423     0.119425    Uiso  ? C
   C56        1.0     0.006918     0.869425     0.143423    Uiso  ? C
   C57        1.0     0.289694     0.883124     0.152047    Uiso  ? C
   C58        1.0     0.114408     0.784377     0.140194    Uiso  ? C
   C59        1.0     0.135592     0.890194     0.034377    Uiso  ? C
   C60        1.0     0.147230     0.862886     0.084677    Uiso  ? C
   C61        1.0     0.102770     0.834677     0.112887    Uiso  ? C
   C62        1.0     0.300013     0.672647     0.253363    Uiso  ? C
   C63        1.0     0.246637     0.699985     0.172648    Uiso  ? C
   C64        1.0     0.327358     0.753347     0.199993    Uiso  ? C
   C65        1.0     0.267218     0.788843     0.134504    Uiso  ? C
   C66        1.0     0.188220     0.710663     0.165592    Uiso  ? C
   C67        1.0     0.285913     0.741732     0.161707    Uiso  ? C
   C68        1.0     0.210973     0.802022     0.128185    Uiso  ? C
   C69        1.0     0.039027     0.878185     0.052022    Uiso  ? C
   C70        1.0     0.168767     0.763884     0.144493    Uiso  ? C
   C71        1.0     0.081233     0.894493     0.013884    Uiso  ? C
   C72        1.0     0.200322     0.855760     0.108879    Uiso  ? C
   C73        1.0     0.049678     0.858879     0.105760    Uiso  ? C
   C74        1.0     0.359806     0.885592     0.284377    Uiso  ? C
   C75        1.0     0.365498     0.732783     0.288843    Uiso  ? C
   C76        1.0     0.334408     0.811780     0.210663    Uiso  ? C
   C77        1.0     0.338291     0.714086     0.241748    Uiso  ? C
   C78        1.0     0.371816     0.789027     0.302022    Uiso  ? C
   C79        1.0     0.355507     0.831233     0.263884    Uiso  ? C
   C80        1.0     0.960306     0.902048     0.133123    Uiso  ? C
   C81        1.0     0.922648     0.949986     0.003365    Uiso  ? C
   C82        1.0     0.982783     0.884503     0.038844    Uiso  ? C
   C83        1.0     0.915592     0.960663     0.061780    Uiso  ? C
   C84        1.0     0.256918     0.106577     0.619426    Uiso  ? C
   C85        1.0     0.210305     0.116877     0.652048    Uiso  ? C
   C86        1.0     0.232783     0.211157     0.634502    Uiso  ? C
   C87        1.0     0.311780     0.289337     0.665592    Uiso  ? C
   C88        1.0     0.214085     0.258250     0.661709    Uiso  ? C
   C89        1.0     0.289027     0.197978     0.628185    Uiso  ? C
   C90        1.0     0.331233     0.236116     0.644493    Uiso  ? C
   C91        1.0     0.299678     0.144240     0.608880    Uiso  ? C
   C92        1.0     0.493082     0.130575     0.643423    Uiso  ? C
   C93        1.0     0.366877     0.039694     0.402048    Uiso  ? C
   C94        1.0     0.539694     0.097952     0.633123    Uiso  ? C
   C95        1.0     0.385592     0.215623     0.640194    Uiso  ? C
   C96        1.0     0.364408     0.109806     0.534377    Uiso  ? C
   C97        1.0     0.352770     0.137114     0.584677    Uiso  ? C
   C98        1.0     0.397230     0.165324     0.612887    Uiso  ? C
   C99        1.0     0.577352     0.050014     0.503364    Uiso  ? C
   C100       1.0     0.496647     0.077357     0.449991    Uiso  ? C
   C101       1.0     0.461156     0.017218     0.384503    Uiso  ? C
   C102       1.0     0.517217     0.115497     0.538844    Uiso  ? C
   C103       1.0     0.584408     0.039337     0.561780    Uiso  ? C
   C104       1.0     0.438221     0.084408     0.460663    Uiso  ? C
   C105       1.0     0.535915     0.088291     0.491750    Uiso  ? C
   C106       1.0     0.508262     0.035913     0.411709    Uiso  ? C
   C107       1.0     0.588291     0.008252     0.464086    Uiso  ? C
   C108       1.0     0.460973     0.121816     0.552022    Uiso  ? C
   C109       1.0     0.418767     0.105507     0.513884    Uiso  ? C
   C110       1.0     0.450322     0.141121     0.605760    Uiso  ? C
   C111       1.0     0.885592     0.284377     0.359806    Uiso  ? C
   C112       1.0     0.732783     0.288844     0.365496    Uiso  ? C
   C113       1.0     0.811779     0.210663     0.334409    Uiso  ? C
   C114       1.0     0.714085     0.241750     0.338291    Uiso  ? C
   C115       1.0     0.789027     0.302024     0.371813    Uiso  ? C
   C116       1.0     0.831233     0.263885     0.355506    Uiso  ? C
   C117       1.0     0.130574     0.643424     0.493082    Uiso  ? C
   C118       1.0     0.097952     0.633123     0.539695    Uiso  ? C
   C119       1.0     0.039696     0.402051     0.366882    Uiso  ? C
   C120       1.0     0.109805     0.534376     0.364409    Uiso  ? C
   C121       1.0     0.215623     0.640194     0.385592    Uiso  ? C
   C122       1.0     0.165323     0.612886     0.397231    Uiso  ? C
   C123       1.0     0.137113     0.584676     0.352770    Uiso  ? C
   C124       1.0     0.077356     0.449987     0.496638    Uiso  ? C
   C125       1.0     0.050013     0.503360     0.577355    Uiso  ? C
   C126       1.0     0.115497     0.538843     0.517218    Uiso  ? C
   C127       1.0     0.017214     0.384500     0.461156    Uiso  ? C
   C128       1.0     0.039336     0.561780     0.584409    Uiso  ? C
   C129       1.0     0.084410     0.460666     0.438221    Uiso  ? C
   C130       1.0     0.035914     0.411708     0.508252    Uiso  ? C
   C131       1.0     0.008253     0.464086     0.588292    Uiso  ? C
   C132       1.0     0.088291     0.491746     0.535915    Uiso  ? C
   C133       1.0     0.121813     0.552022     0.460973    Uiso  ? C
   C134       1.0     0.105505     0.513884     0.418768    Uiso  ? C
   C135       1.0     0.141120     0.605760     0.450322    Uiso  ? C
   C136       1.0     0.897231     0.334676     0.387115    Uiso  ? C
   C137       1.0     0.756918     0.393425     0.380575    Uiso  ? C
   C138       1.0     0.856575     0.506919     0.630575    Uiso  ? C
   C139       1.0     0.993082     0.369426     0.356575    Uiso  ? C
   C140       1.0     0.710306     0.383123     0.347952    Uiso  ? C
   C141       1.0     0.866877     0.460306     0.597952    Uiso  ? C
   C142       1.0     0.965623     0.635592     0.609806    Uiso  ? C
   C143       1.0     0.864409     0.390194     0.465624    Uiso  ? C
   C144       1.0     0.852770     0.362887     0.415324    Uiso  ? C
   C145       1.0     0.915324     0.647230     0.637114    Uiso  ? C
   C146       1.0     0.996640     0.422645     0.550013    Uiso  ? C
   C147       1.0     0.961155     0.482783     0.615498    Uiso  ? C
   C148       1.0     0.938221     0.415591     0.539337    Uiso  ? C
   C149       1.0     0.947976     0.539028     0.621814    Uiso  ? C
   C150       1.0     0.960972     0.378187     0.447976    Uiso  ? C
   C151       1.0     0.986114     0.581233     0.605507    Uiso  ? C
   C152       1.0     0.918768     0.394494     0.486116    Uiso  ? C
   C153       1.0     0.799679     0.355761     0.391120    Uiso  ? C
   C154       1.0     0.894239     0.549678     0.641120    Uiso  ? C
   C155       1.0     0.950323     0.358880     0.394240    Uiso  ? C
   C156       1.0     0.887114     0.602770     0.665324    Uiso  ? C
   C157       1.0     0.387114     0.897230     0.334677    Uiso  ? C
   C158       1.0     0.356577     0.993082     0.369425    Uiso  ? C
   C159       1.0     0.380575     0.756918     0.393423    Uiso  ? C
   C160       1.0     0.630575     0.856577     0.506918    Uiso  ? C
   C161       1.0     0.347952     0.710306     0.383123    Uiso  ? C
   C162       1.0     0.597952     0.866877     0.460306    Uiso  ? C
   C163       1.0     0.465623     0.864408     0.390194    Uiso  ? C
   C164       1.0     0.609806     0.965623     0.635592    Uiso  ? C
   C165       1.0     0.415323     0.852770     0.362886    Uiso  ? C
   C166       1.0     0.637114     0.915323     0.647231    Uiso  ? C
   C167       1.0     0.550013     0.996638     0.422647    Uiso  ? C
   C168       1.0     0.615497     0.961156     0.482783    Uiso  ? C
   C169       1.0     0.539337     0.938220     0.415592    Uiso  ? C
   C170       1.0     0.447978     0.960973     0.378185    Uiso  ? C
   C171       1.0     0.621816     0.947977     0.539027    Uiso  ? C
   C172       1.0     0.486116     0.918767     0.394493    Uiso  ? C
   C173       1.0     0.605507     0.986116     0.581233    Uiso  ? C
   C174       1.0     0.394240     0.950322     0.358879    Uiso  ? C
   C175       1.0     0.391121     0.799678     0.355760    Uiso  ? C
   C176       1.0     0.641121     0.894240     0.549678    Uiso  ? C
   C177       1.0     0.665324     0.887113     0.602770    Uiso  ? C
   C178       1.0     0.880574     0.743082     0.606576    Uiso  ? C
   C179       1.0     0.847951     0.789694     0.616878    Uiso  ? C
   C180       1.0     0.715623     0.859805     0.614409    Uiso  ? C
   C181       1.0     0.891120     0.700322     0.644239    Uiso  ? C
   C182       1.0     0.143423     0.006918     0.869425    Uiso  ? C
   C183       1.0     0.119425     0.243082     0.893423    Uiso  ? C
   C184       1.0     0.152048     0.289694     0.883122    Uiso  ? C
   C185       1.0     0.034377     0.135592     0.890194    Uiso  ? C
   C186       1.0     0.140194     0.114408     0.784377    Uiso  ? C
   C187       1.0     0.112886     0.102770     0.834677    Uiso  ? C
   C188       1.0     0.084677     0.147230     0.862887    Uiso  ? C
   C189       1.0     0.199987     0.327353     0.753362    Uiso  ? C
   C190       1.0     0.253364     0.300014     0.672648    Uiso  ? C
   C191       1.0     0.172648     0.246637     0.699986    Uiso  ? C
   C192       1.0     0.134502     0.267217     0.788843    Uiso  ? C
   C193       1.0     0.165592     0.188221     0.710663    Uiso  ? C
   C194       1.0     0.161709     0.285915     0.741748    Uiso  ? C
   C195       1.0     0.052022     0.039027     0.878185    Uiso  ? C
   C196       1.0     0.128185     0.210973     0.802022    Uiso  ? C
   C197       1.0     0.013884     0.081233     0.894493    Uiso  ? C
   C198       1.0     0.144493     0.168767     0.763884    Uiso  ? C
   C199       1.0     0.105760     0.049678     0.858880    Uiso  ? C
   C200       1.0     0.108879     0.200322     0.855760    Uiso  ? C
   C201       1.0     0.902048     0.133123     0.960306    Uiso  ? C
   C202       1.0     0.949988     0.003359     0.922646    Uiso  ? C
   C203       1.0     0.884503     0.038843     0.982783    Uiso  ? C
   C204       1.0     0.960663     0.061780     0.915592    Uiso  ? C
   C205       1.0     0.284377     0.359806     0.885592    Uiso  ? C
   C206       1.0     0.288844     0.365497     0.732783    Uiso  ? C
   C207       1.0     0.210663     0.334408     0.811779    Uiso  ? C
   C208       1.0     0.241750     0.338291     0.714085    Uiso  ? C
   C209       1.0     0.302023     0.371815     0.789027    Uiso  ? C
   C210       1.0     0.263884     0.355507     0.831233    Uiso  ? C
   C211       1.0     0.334677     0.387114     0.897230    Uiso  ? C
   C212       1.0     0.369425     0.356577     0.993082    Uiso  ? C
   C213       1.0     0.506918     0.630575     0.856576    Uiso  ? C
   C214       1.0     0.393424     0.380575     0.756918    Uiso  ? C
   C215       1.0     0.460306     0.597952     0.866878    Uiso  ? C
   C216       1.0     0.383123     0.347952     0.710306    Uiso  ? C
   C217       1.0     0.390194     0.465623     0.864408    Uiso  ? C
   C218       1.0     0.635592     0.609807     0.965623    Uiso  ? C
   C219       1.0     0.647231     0.637114     0.915323    Uiso  ? C
   C220       1.0     0.362886     0.415324     0.852770    Uiso  ? C
   C221       1.0     0.422647     0.550013     0.996638    Uiso  ? C
   C222       1.0     0.482784     0.615498     0.961156    Uiso  ? C
   C223       1.0     0.415592     0.539337     0.938220    Uiso  ? C
   C224       1.0     0.378185     0.447978     0.960973    Uiso  ? C
   C225       1.0     0.539028     0.621816     0.947977    Uiso  ? C
   C226       1.0     0.394493     0.486116     0.918767    Uiso  ? C
   C227       1.0     0.581233     0.605507     0.986116    Uiso  ? C
   C228       1.0     0.358879     0.394240     0.950322    Uiso  ? C
   C229       1.0     0.549678     0.641121     0.894240    Uiso  ? C
   C230       1.0     0.355761     0.391120     0.799678    Uiso  ? C
   C231       1.0     0.602770     0.665324     0.887114    Uiso  ? C
   C232       1.0     0.743082     0.606576     0.880574    Uiso  ? C
   C233       1.0     0.789694     0.616877     0.847952    Uiso  ? C
   C234       1.0     0.859806     0.614408     0.715623    Uiso  ? C
   C235       1.0     0.700322     0.644239     0.891119    Uiso  ? C
   C236       1.0     0.133124     0.960305     0.902047    Uiso  ? C
   C237       1.0     0.003349     0.922642     0.949992    Uiso  ? C
   C238       1.0     0.038843     0.982782     0.884503    Uiso  ? C
   C239       1.0     0.061780     0.915592     0.960663    Uiso  ? C
   C240       1.0     0.606575     0.880574     0.743082    Uiso  ? C
   C241       1.0     0.616876     0.847952     0.789694    Uiso  ? C
   C242       1.0     0.614409     0.715623     0.859805    Uiso  ? C
   C243       1.0     0.644239     0.891119     0.700322    Uiso  ? C
   C244       1.0     0.800014     0.827354     0.746639    Uiso  ? C
   C245       1.0     0.746637     0.800014     0.827353    Uiso  ? C
   C246       1.0     0.827354     0.746639     0.800013    Uiso  ? C
   C247       1.0     0.767218     0.711156     0.865497    Uiso  ? C
   C248       1.0     0.865497     0.767217     0.711156    Uiso  ? C
   C249       1.0     0.711156     0.865496     0.767218    Uiso  ? C
   C250       1.0     0.688221     0.789337     0.834409    Uiso  ? C
   C251       1.0     0.834409     0.688221     0.789337    Uiso  ? C
   C252       1.0     0.789337     0.834409     0.688221    Uiso  ? C
   C253       1.0     0.964085     0.911709     0.991750    Uiso  ? C
   C254       1.0     0.838292     0.785915     0.758252    Uiso  ? C
   C255       1.0     0.991734     0.964087     0.911707    Uiso  ? C
   C256       1.0     0.758251     0.838291     0.785915    Uiso  ? C
   C257       1.0     0.911708     0.991745     0.964086    Uiso  ? C
   C258       1.0     0.785915     0.758252     0.838291    Uiso  ? C
   C259       1.0     0.710973     0.697977     0.871813    Uiso  ? C
   C260       1.0     0.871814     0.710972     0.697976    Uiso  ? C
   C261       1.0     0.697976     0.871813     0.710973    Uiso  ? C
   C262       1.0     0.668768     0.736115     0.855506    Uiso  ? C
   C263       1.0     0.855506     0.668767     0.736115    Uiso  ? C
   C264       1.0     0.736115     0.855506     0.668768    Uiso  ? C
   H1         1.0     0.603021     0.262027     0.064232    Uiso  ? H
   H2         1.0     0.415431     0.333229     0.070407    Uiso  ? H
   H3         1.0     0.665430     0.179594     0.083226    Uiso  ? H
   H4         1.0     0.510148     0.329538     0.093294    Uiso  ? H
   H5         1.0     0.935768     0.103022     0.237974    Uiso  ? H
   H6         1.0     0.853022     0.185767     0.012026    Uiso  ? H
   H7         1.0     0.916772     0.165431     0.320406    Uiso  ? H
   H8         1.0     0.906706     0.010147     0.170462    Uiso  ? H
   H9         1.0     0.760147     0.156706     0.079538    Uiso  ? H
   H10        1.0     0.064233     0.603022     0.262026    Uiso  ? H
   H11        1.0     0.083229     0.665431     0.179593    Uiso  ? H
   H12        1.0     0.070408     0.415431     0.333222    Uiso  ? H
   H13        1.0     0.093294     0.510147     0.329538    Uiso  ? H
   H14        1.0     0.656706     0.420461     0.239854    Uiso  ? H
   H15        1.0     0.987969     0.353018     0.314231    Uiso  ? H
   H16        1.0     0.685768     0.487974     0.146978    Uiso  ? H
   H17        1.0     0.666771     0.570407     0.084569    Uiso  ? H
   H18        1.0     0.237974     0.935767     0.103022    Uiso  ? H
   H19        1.0     0.012026     0.853022     0.185767    Uiso  ? H
   H20        1.0     0.320407     0.916771     0.165431    Uiso  ? H
   H21        1.0     0.079538     0.760147     0.156706    Uiso  ? H
   H22        1.0     0.170462     0.906706     0.010147    Uiso  ? H
   H23        1.0     0.343294     0.920462     0.260147    Uiso  ? H
   H24        1.0     0.929593     0.915431     0.166771    Uiso  ? H
   H25        1.0     0.262026     0.064233     0.603022    Uiso  ? H
   H26        1.0     0.179593     0.083229     0.665431    Uiso  ? H
   H27        1.0     0.333229     0.070407     0.415431    Uiso  ? H
   H28        1.0     0.329538     0.093294     0.510147    Uiso  ? H
   H29        1.0     0.420462     0.239853     0.656706    Uiso  ? H
   H30        1.0     0.920461     0.260147     0.343294    Uiso  ? H
   H31        1.0     0.239853     0.656706     0.420462    Uiso  ? H
   H32        1.0     0.762027     0.435768     0.396979    Uiso  ? H
   H33        1.0     0.814232     0.512028     0.646979    Uiso  ? H
   H34        1.0     0.679595     0.416774     0.334570    Uiso  ? H
   H35        1.0     0.833226     0.429594     0.584570    Uiso  ? H
   H36        1.0     0.829539     0.406706     0.489853    Uiso  ? H
   H37        1.0     0.146979     0.685768     0.487973    Uiso  ? H
   H38        1.0     0.314233     0.987974     0.353022    Uiso  ? H
   H39        1.0     0.084569     0.666773     0.570407    Uiso  ? H
   H40        1.0     0.646978     0.814233     0.512026    Uiso  ? H
   H41        1.0     0.396978     0.762026     0.435767    Uiso  ? H
   H42        1.0     0.584569     0.833229     0.429593    Uiso  ? H
   H43        1.0     0.334569     0.679593     0.416771    Uiso  ? H
   H44        1.0     0.489853     0.829538     0.406706    Uiso  ? H
   H45        1.0     0.896979     0.737973     0.564232    Uiso  ? H
   H46        1.0     0.834569     0.820406     0.583227    Uiso  ? H
   H47        1.0     0.989853     0.670461     0.593294    Uiso  ? H
   H48        1.0     0.739854     0.843294     0.579539    Uiso  ? H
   H49        1.0     0.103022     0.237974     0.935767    Uiso  ? H
   H50        1.0     0.185767     0.012026     0.853022    Uiso  ? H
   H51        1.0     0.165431     0.320407     0.916771    Uiso  ? H
   H52        1.0     0.010147     0.170462     0.906706    Uiso  ? H
   H53        1.0     0.156706     0.079538     0.760147    Uiso  ? H
   H54        1.0     0.353022     0.314233     0.987974    Uiso  ? H
   H55        1.0     0.487974     0.146978     0.685767    Uiso  ? H
   H56        1.0     0.570407     0.084569     0.666771    Uiso  ? H
   H57        1.0     0.915431     0.166771     0.929593    Uiso  ? H
   H58        1.0     0.260147     0.343294     0.920462    Uiso  ? H
   H59        1.0     0.435768     0.396978     0.762026    Uiso  ? H
   H60        1.0     0.512027     0.646979     0.814232    Uiso  ? H
   H61        1.0     0.416772     0.334569     0.679594    Uiso  ? H
   H62        1.0     0.429593     0.584569     0.833228    Uiso  ? H
   H63        1.0     0.406706     0.489853     0.829538    Uiso  ? H
   H64        1.0     0.737973     0.564232     0.896979    Uiso  ? H
   H65        1.0     0.820406     0.583227     0.834570    Uiso  ? H
   H66        1.0     0.843294     0.579538     0.739853    Uiso  ? H
   H67        1.0     0.670462     0.593294     0.989853    Uiso  ? H
   H68        1.0     0.166771     0.929593     0.915431    Uiso  ? H
   H69        1.0     0.564232     0.896979     0.737973    Uiso  ? H
   H70        1.0     0.583225     0.834570     0.820405    Uiso  ? H
   H71        1.0     0.579539     0.739854     0.843294    Uiso  ? H
   H72        1.0     0.593294     0.989853     0.670462    Uiso  ? H
   N1         1.0     0.666912     0.202658     0.173327    Uiso  ? N
   N2         1.0     0.826665     0.166914     0.297343    Uiso  ? N
   N3         1.0     0.702657     0.326665     0.333086    Uiso  ? N
   N4         1.0     0.576666     0.547342     0.083087    Uiso  ? N
   N5         1.0     0.416913     0.423332     0.047342    Uiso  ? N
   N6         1.0     0.297338     0.826697     0.166908    Uiso  ? N
   N7         1.0     0.173336     0.666913     0.202658    Uiso  ? N
   N8         1.0     0.333087     0.702658     0.326667    Uiso  ? N
   N9         1.0     0.952658     0.916914     0.076663    Uiso  ? N
   N10        1.0     0.423313     0.047339     0.416909    Uiso  ? N
   N11        1.0     0.547342     0.083086     0.576664    Uiso  ? N
   N12        1.0     0.083087     0.576668     0.547342    Uiso  ? N
   N13        1.0     0.047343     0.416914     0.423331    Uiso  ? N
   N14        1.0     0.923331     0.452657     0.583086    Uiso  ? N
   N15        1.0     0.583087     0.923332     0.452659    Uiso  ? N
   N16        1.0     0.202658     0.173336     0.666913    Uiso  ? N
   N17        1.0     0.166913     0.297342     0.826666    Uiso  ? N
   N18        1.0     0.326664     0.333086     0.702658    Uiso  ? N
   N19        1.0     0.916911     0.076674     0.952659    Uiso  ? N
   N20        1.0     0.452658     0.583087     0.923331    Uiso  ? N
   N21        1.0     0.076694     0.952661     0.916908    Uiso  ? N
   N22        1.0     0.833087     0.797343     0.673332    Uiso  ? N
   N23        1.0     0.797343     0.673331     0.833087    Uiso  ? N
   N24        1.0     0.673335     0.833086     0.797343    Uiso  ? N
