
#======================================================================
# CRYSTAL DATA
#----------------------------------------------------------------------
data_VESTA_phase_1

_chemical_name_common                  'POSCAR file written by OVITO Basic 3.8'
_cell_length_a                         22.621300
_cell_length_b                         22.621300
_cell_length_c                         22.621300
_cell_angle_alpha                      90.000000
_cell_angle_beta                       90.000000
_cell_angle_gamma                      90.000000
_cell_volume                           11575.843940
_space_group_name_H-M_alt              'P 1'
_space_group_IT_number                 1

loop_
_space_group_symop_operation_xyz
   'x, y, z'

loop_
   _atom_site_label
   _atom_site_occupancy
   _atom_site_fract_x
   _atom_site_fract_y
   _atom_site_fract_z
   _atom_site_adp_type
   _atom_site_U_iso_or_equiv
   _atom_site_type_symbol
   C1         1.0     0.627721     0.274379     0.087809    Uiso  ? C
   C2         1.0     0.657505     0.221570     0.097606    Uiso  ? C
   C3         1.0     0.641167     0.235553     0.201045    Uiso  ? C
   C4         1.0     0.657937     0.316529     0.293479    Uiso  ? C
   C5         1.0     0.658289     0.213430     0.256214    Uiso  ? C
   C6         1.0     0.622789     0.293625     0.194962    Uiso  ? C
   C7         1.0     0.610054     0.310528     0.136115    Uiso  ? C
   C8         1.0     0.665891     0.253285     0.302039    Uiso  ? C
   C9         1.0     0.877721     0.162194     0.024378    Uiso  ? C
   C10        1.0     0.912193     0.127721     0.225624    Uiso  ? C
   C11        1.0     0.902396     0.157506     0.278434    Uiso  ? C
   C12        1.0     0.851200     0.014490     0.140210    Uiso  ? C
   C13        1.0     0.764493     0.101195     0.109784    Uiso  ? C
   C14        1.0     0.697962     0.165890     0.246715    Uiso  ? C
   C15        1.0     0.798958     0.141169     0.264445    Uiso  ? C
   C16        1.0     0.706520     0.157932     0.183471    Uiso  ? C
   C17        1.0     0.743788     0.158291     0.286567    Uiso  ? C
   C18        1.0     0.872801     0.055038     0.043626    Uiso  ? C
   C19        1.0     0.805040     0.122787     0.206374    Uiso  ? C
   C20        1.0     0.876355     0.007814     0.084054    Uiso  ? C
   C21        1.0     0.757815     0.126345     0.165942    Uiso  ? C
   C22        1.0     0.667704     0.200914     0.154434    Uiso  ? C
   C23        1.0     0.845567     0.167705     0.299086    Uiso  ? C
   C24        1.0     0.860060     0.113887     0.060525    Uiso  ? C
   C25        1.0     0.863888     0.110054     0.189470    Uiso  ? C
   C26        1.0     0.087806     0.627721     0.274378    Uiso  ? C
   C27        1.0     0.097603     0.657506     0.221568    Uiso  ? C
   C28        1.0     0.201043     0.641163     0.235551    Uiso  ? C
   C29        1.0     0.293477     0.657936     0.316529    Uiso  ? C
   C30        1.0     0.256213     0.658287     0.213430    Uiso  ? C
   C31        1.0     0.194961     0.622790     0.293625    Uiso  ? C
   C32        1.0     0.136114     0.610053     0.310528    Uiso  ? C
   C33        1.0     0.302038     0.665890     0.253285    Uiso  ? C
   C34        1.0     0.626353     0.334059     0.242183    Uiso  ? C
   C35        1.0     0.662195     0.475622     0.122278    Uiso  ? C
   C36        1.0     0.652397     0.528431     0.092494    Uiso  ? C
   C37        1.0     0.407500     0.347603     0.028431    Uiso  ? C
   C38        1.0     0.514492     0.359787     0.148798    Uiso  ? C
   C39        1.0     0.601200     0.390214     0.235508    Uiso  ? C
   C40        1.0     0.503284     0.584109     0.052039    Uiso  ? C
   C41        1.0     0.447961     0.496716     0.084110    Uiso  ? C
   C42        1.0     0.548956     0.514450     0.108838    Uiso  ? C
   C43        1.0     0.391162     0.451044     0.014448    Uiso  ? C
   C44        1.0     0.456519     0.433472     0.092065    Uiso  ? C
   C45        1.0     0.566528     0.592061     0.043478    Uiso  ? C
   C46        1.0     0.463430     0.591713     0.006214    Uiso  ? C
   C47        1.0     0.493786     0.536571     0.091715    Uiso  ? C
   C48        1.0     0.408287     0.506213     0.036570    Uiso  ? C
   C49        1.0     0.555041     0.456376     0.127208    Uiso  ? C
   C50        1.0     0.507818     0.415943     0.123645    Uiso  ? C
   C51        1.0     0.595568     0.549086     0.082297    Uiso  ? C
   C52        1.0     0.417699     0.404432     0.049087    Uiso  ? C
   C53        1.0     0.613888     0.439471     0.139944    Uiso  ? C
   C54        1.0     0.700915     0.345569     0.332296    Uiso  ? C
   C55        1.0     0.225619     0.912195     0.127721    Uiso  ? C
   C56        1.0     0.024380     0.877716     0.162190    Uiso  ? C
   C57        1.0     0.278430     0.902398     0.157502    Uiso  ? C
   C58        1.0     0.109791     0.764492     0.101199    Uiso  ? C
   C59        1.0     0.140221     0.851217     0.014496    Uiso  ? C
   C60        1.0     0.246716     0.697962     0.165890    Uiso  ? C
   C61        1.0     0.264453     0.798955     0.141159    Uiso  ? C
   C62        1.0     0.183473     0.706521     0.157938    Uiso  ? C
   C63        1.0     0.286573     0.743785     0.158284    Uiso  ? C
   C64        1.0     0.206376     0.805039     0.122797    Uiso  ? C
   C65        1.0     0.043635     0.872804     0.055037    Uiso  ? C
   C66        1.0     0.165943     0.757818     0.126359    Uiso  ? C
   C67        1.0     0.084064     0.876367     0.007818    Uiso  ? C
   C68        1.0     0.299087     0.845568     0.167698    Uiso  ? C
   C69        1.0     0.154432     0.667704     0.200913    Uiso  ? C
   C70        1.0     0.189470     0.863885     0.110067    Uiso  ? C
   C71        1.0     0.060530     0.860057     0.113883    Uiso  ? C
   C72        1.0     0.334107     0.753284     0.197963    Uiso  ? C
   C73        1.0     0.398801     0.890211     0.264491    Uiso  ? C
   C74        1.0     0.358837     0.735550     0.298955    Uiso  ? C
   C75        1.0     0.342059     0.816529     0.206522    Uiso  ? C
   C76        1.0     0.341712     0.713428     0.243786    Uiso  ? C
   C77        1.0     0.377209     0.793623     0.305040    Uiso  ? C
   C78        1.0     0.373642     0.834057     0.257819    Uiso  ? C
   C79        1.0     0.971567     0.907500     0.152397    Uiso  ? C
   C80        1.0     0.915886     0.947957     0.003276    Uiso  ? C
   C81        1.0     0.985561     0.891173     0.048953    Uiso  ? C
   C82        1.0     0.907931     0.956515     0.066524    Uiso  ? C
   C83        1.0     0.950913     0.917700     0.095565    Uiso  ? C
   C84        1.0     0.274380     0.087807     0.627728    Uiso  ? C
   C85        1.0     0.221567     0.097597     0.657510    Uiso  ? C
   C86        1.0     0.235549     0.201041     0.641168    Uiso  ? C
   C87        1.0     0.316523     0.293484     0.657927    Uiso  ? C
   C88        1.0     0.213424     0.256212     0.658290    Uiso  ? C
   C89        1.0     0.293625     0.194959     0.622798    Uiso  ? C
   C90        1.0     0.310530     0.136112     0.610059    Uiso  ? C
   C91        1.0     0.253276     0.302041     0.665887    Uiso  ? C
   C92        1.0     0.334056     0.242184     0.626350    Uiso  ? C
   C93        1.0     0.475626     0.122279     0.662190    Uiso  ? C
   C94        1.0     0.347603     0.028433     0.407509    Uiso  ? C
   C95        1.0     0.528437     0.092497     0.652397    Uiso  ? C
   C96        1.0     0.390215     0.235512     0.601201    Uiso  ? C
   C97        1.0     0.359785     0.148809     0.514491    Uiso  ? C
   C98        1.0     0.584108     0.052035     0.503285    Uiso  ? C
   C99        1.0     0.496714     0.084108     0.447962    Uiso  ? C
   C100       1.0     0.451044     0.014448     0.391164    Uiso  ? C
   C101       1.0     0.514446     0.108832     0.548956    Uiso  ? C
   C102       1.0     0.592064     0.043478     0.566528    Uiso  ? C
   C103       1.0     0.433470     0.092065     0.456520    Uiso  ? C
   C104       1.0     0.536568     0.091709     0.493787    Uiso  ? C
   C105       1.0     0.506213     0.036569     0.408288    Uiso  ? C
   C106       1.0     0.591712     0.006211     0.463430    Uiso  ? C
   C107       1.0     0.456372     0.127207     0.555039    Uiso  ? C
   C108       1.0     0.415939     0.123650     0.507816    Uiso  ? C
   C109       1.0     0.404433     0.049086     0.417704    Uiso  ? C
   C110       1.0     0.549088     0.082298     0.595567    Uiso  ? C
   C111       1.0     0.439470     0.139942     0.613886    Uiso  ? C
   C112       1.0     0.753284     0.197963     0.334108    Uiso  ? C
   C113       1.0     0.890214     0.264492     0.398798    Uiso  ? C
   C114       1.0     0.735553     0.298957     0.358834    Uiso  ? C
   C115       1.0     0.816528     0.206520     0.342065    Uiso  ? C
   C116       1.0     0.713430     0.243787     0.341714    Uiso  ? C
   C117       1.0     0.793625     0.305039     0.377209    Uiso  ? C
   C118       1.0     0.834057     0.257817     0.373647    Uiso  ? C
   C119       1.0     0.242181     0.626355     0.334058    Uiso  ? C
   C120       1.0     0.122278     0.662190     0.475625    Uiso  ? C
   C121       1.0     0.092494     0.652398     0.528435    Uiso  ? C
   C122       1.0     0.028432     0.407506     0.347604    Uiso  ? C
   C123       1.0     0.148800     0.514491     0.359785    Uiso  ? C
   C124       1.0     0.235509     0.601200     0.390212    Uiso  ? C
   C125       1.0     0.084111     0.447962     0.496716    Uiso  ? C
   C126       1.0     0.052041     0.503285     0.584110    Uiso  ? C
   C127       1.0     0.108832     0.548958     0.514447    Uiso  ? C
   C128       1.0     0.014448     0.391168     0.451043    Uiso  ? C
   C129       1.0     0.043480     0.566527     0.592065    Uiso  ? C
   C130       1.0     0.092064     0.456522     0.433472    Uiso  ? C
   C131       1.0     0.036570     0.408288     0.506214    Uiso  ? C
   C132       1.0     0.006212     0.463430     0.591713    Uiso  ? C
   C133       1.0     0.091711     0.493787     0.536571    Uiso  ? C
   C134       1.0     0.127206     0.555041     0.456374    Uiso  ? C
   C135       1.0     0.123646     0.507819     0.415941    Uiso  ? C
   C136       1.0     0.082295     0.595568     0.549086    Uiso  ? C
   C137       1.0     0.049087     0.417706     0.404432    Uiso  ? C
   C138       1.0     0.139945     0.613887     0.439471    Uiso  ? C
   C139       1.0     0.774377     0.412192     0.372278    Uiso  ? C
   C140       1.0     0.837808     0.524378     0.622279    Uiso  ? C
   C141       1.0     0.975623     0.377720     0.337810    Uiso  ? C
   C142       1.0     0.721567     0.402399     0.342493    Uiso  ? C
   C143       1.0     0.847603     0.471568     0.592494    Uiso  ? C
   C144       1.0     0.985509     0.640214     0.648796    Uiso  ? C
   C145       1.0     0.859787     0.351202     0.485509    Uiso  ? C
   C146       1.0     0.996717     0.415891     0.552038    Uiso  ? C
   C147       1.0     0.951045     0.485553     0.608833    Uiso  ? C
   C148       1.0     0.933472     0.407937     0.543477    Uiso  ? C
   C149       1.0     0.944960     0.543626     0.627207    Uiso  ? C
   C150       1.0     0.956375     0.372792     0.444962    Uiso  ? C
   C151       1.0     0.992182     0.584058     0.623644    Uiso  ? C
   C152       1.0     0.915942     0.376356     0.492182    Uiso  ? C
   C153       1.0     0.904432     0.450913     0.582294    Uiso  ? C
   C154       1.0     0.810528     0.363886     0.389945    Uiso  ? C
   C155       1.0     0.886115     0.560529     0.639944    Uiso  ? C
   C156       1.0     0.939473     0.360055     0.386115    Uiso  ? C
   C157       1.0     0.332297     0.700913     0.345568    Uiso  ? C
   C158       1.0     0.337809     0.975623     0.377723    Uiso  ? C
   C159       1.0     0.372278     0.774378     0.412193    Uiso  ? C
   C160       1.0     0.622276     0.837807     0.524379    Uiso  ? C
   C161       1.0     0.342495     0.721567     0.402398    Uiso  ? C
   C162       1.0     0.592492     0.847604     0.471570    Uiso  ? C
   C163       1.0     0.485508     0.859785     0.351203    Uiso  ? C
   C164       1.0     0.648800     0.985509     0.640214    Uiso  ? C
   C165       1.0     0.552038     0.996715     0.415890    Uiso  ? C
   C166       1.0     0.608836     0.951042     0.485551    Uiso  ? C
   C167       1.0     0.543479     0.933472     0.407934    Uiso  ? C
   C168       1.0     0.444962     0.956376     0.372787    Uiso  ? C
   C169       1.0     0.627212     0.944960     0.543624    Uiso  ? C
   C170       1.0     0.492183     0.915943     0.376351    Uiso  ? C
   C171       1.0     0.623647     0.992181     0.584057    Uiso  ? C
   C172       1.0     0.582295     0.904432     0.450913    Uiso  ? C
   C173       1.0     0.386115     0.939473     0.360051    Uiso  ? C
   C174       1.0     0.389944     0.810528     0.363886    Uiso  ? C
   C175       1.0     0.639946     0.886113     0.560530    Uiso  ? C
   C176       1.0     0.872278     0.725622     0.587809    Uiso  ? C
   C177       1.0     0.842494     0.778432     0.597604    Uiso  ? C
   C178       1.0     0.735510     0.898798     0.609787    Uiso  ? C
   C179       1.0     0.832296     0.799086     0.654433    Uiso  ? C
   C180       1.0     0.889945     0.689471     0.636114    Uiso  ? C
   C181       1.0     0.742181     0.873643     0.665942    Uiso  ? C
   C182       1.0     0.162190     0.024368     0.877723    Uiso  ? C
   C183       1.0     0.127726     0.225626     0.912185    Uiso  ? C
   C184       1.0     0.157515     0.278437     0.902406    Uiso  ? C
   C185       1.0     0.014486     0.140205     0.851181    Uiso  ? C
   C186       1.0     0.101197     0.109789     0.764481    Uiso  ? C
   C187       1.0     0.165887     0.246715     0.697963    Uiso  ? C
   C188       1.0     0.141178     0.264444     0.798963    Uiso  ? C
   C189       1.0     0.157919     0.183472     0.706508    Uiso  ? C
   C190       1.0     0.158293     0.286571     0.743789    Uiso  ? C
   C191       1.0     0.055048     0.043637     0.872802    Uiso  ? C
   C192       1.0     0.122782     0.206378     0.805036    Uiso  ? C
   C193       1.0     0.007819     0.084057     0.876354    Uiso  ? C
   C194       1.0     0.126337     0.165950     0.757807    Uiso  ? C
   C195       1.0     0.200906     0.154426     0.667701    Uiso  ? C
   C196       1.0     0.167711     0.299086     0.845574    Uiso  ? C
   C197       1.0     0.113893     0.060529     0.860053    Uiso  ? C
   C198       1.0     0.110046     0.189475     0.863888    Uiso  ? C
   C199       1.0     0.345565     0.332293     0.700912    Uiso  ? C
   C200       1.0     0.907505     0.152399     0.971567    Uiso  ? C
   C201       1.0     0.947956     0.003284     0.915881    Uiso  ? C
   C202       1.0     0.891170     0.048960     0.985550    Uiso  ? C
   C203       1.0     0.956515     0.066528     0.907927    Uiso  ? C
   C204       1.0     0.917708     0.095571     0.950913    Uiso  ? C
   C205       1.0     0.197962     0.334114     0.753288    Uiso  ? C
   C206       1.0     0.264493     0.398788     0.890219    Uiso  ? C
   C207       1.0     0.298958     0.358831     0.735551    Uiso  ? C
   C208       1.0     0.206528     0.342063     0.816533    Uiso  ? C
   C209       1.0     0.243785     0.341712     0.713430    Uiso  ? C
   C210       1.0     0.305042     0.377197     0.793626    Uiso  ? C
   C211       1.0     0.257827     0.373637     0.834062    Uiso  ? C
   C212       1.0     0.377718     0.337807     0.975621    Uiso  ? C
   C213       1.0     0.524380     0.622277     0.837805    Uiso  ? C
   C214       1.0     0.412191     0.372284     0.774375    Uiso  ? C
   C215       1.0     0.471571     0.592493     0.847605    Uiso  ? C
   C216       1.0     0.402392     0.342498     0.721567    Uiso  ? C
   C217       1.0     0.351199     0.485508     0.859787    Uiso  ? C
   C218       1.0     0.640212     0.648798     0.985508    Uiso  ? C
   C219       1.0     0.415893     0.552037     0.996715    Uiso  ? C
   C220       1.0     0.485553     0.608837     0.951046    Uiso  ? C
   C221       1.0     0.407941     0.543477     0.933471    Uiso  ? C
   C222       1.0     0.372791     0.444960     0.956374    Uiso  ? C
   C223       1.0     0.543626     0.627209     0.944960    Uiso  ? C
   C224       1.0     0.376356     0.492183     0.915942    Uiso  ? C
   C225       1.0     0.584057     0.623644     0.992182    Uiso  ? C
   C226       1.0     0.450918     0.582296     0.904434    Uiso  ? C
   C227       1.0     0.360059     0.386114     0.939469    Uiso  ? C
   C228       1.0     0.560530     0.639944     0.886112    Uiso  ? C
   C229       1.0     0.363886     0.389942     0.810527    Uiso  ? C
   C230       1.0     0.725623     0.587809     0.872279    Uiso  ? C
   C231       1.0     0.778432     0.597604     0.842495    Uiso  ? C
   C232       1.0     0.898798     0.609786     0.735508    Uiso  ? C
   C233       1.0     0.799087     0.654432     0.832296    Uiso  ? C
   C234       1.0     0.689471     0.636115     0.889945    Uiso  ? C
   C235       1.0     0.873645     0.665942     0.742181    Uiso  ? C
   C236       1.0     0.152393     0.971562     0.907517    Uiso  ? C
   C237       1.0     0.003282     0.915889     0.947956    Uiso  ? C
   C238       1.0     0.048960     0.985562     0.891183    Uiso  ? C
   C239       1.0     0.066526     0.907939     0.956522    Uiso  ? C
   C240       1.0     0.095564     0.950917     0.917716    Uiso  ? C
   C241       1.0     0.587808     0.872278     0.725623    Uiso  ? C
   C242       1.0     0.597602     0.842494     0.778433    Uiso  ? C
   C243       1.0     0.609786     0.735509     0.898796    Uiso  ? C
   C244       1.0     0.654431     0.832297     0.799088    Uiso  ? C
   C245       1.0     0.636114     0.889944     0.689471    Uiso  ? C
   C246       1.0     0.665941     0.742181     0.873644    Uiso  ? C
   C247       1.0     0.802038     0.834109     0.746717    Uiso  ? C
   C248       1.0     0.746715     0.802038     0.834110    Uiso  ? C
   C249       1.0     0.834109     0.746716     0.802038    Uiso  ? C
   C250       1.0     0.764449     0.701043     0.858835    Uiso  ? C
   C251       1.0     0.858835     0.764448     0.701044    Uiso  ? C
   C252       1.0     0.701043     0.858836     0.764449    Uiso  ? C
   C253       1.0     0.683471     0.793479     0.842064    Uiso  ? C
   C254       1.0     0.842062     0.683472     0.793477    Uiso  ? C
   C255       1.0     0.793478     0.842062     0.683473    Uiso  ? C
   C256       1.0     0.963429     0.908290     0.993785    Uiso  ? C
   C257       1.0     0.841713     0.786570     0.756214    Uiso  ? C
   C258       1.0     0.993784     0.963429     0.908288    Uiso  ? C
   C259       1.0     0.756213     0.841713     0.786572    Uiso  ? C
   C260       1.0     0.908286     0.993784     0.963424    Uiso  ? C
   C261       1.0     0.786570     0.756213     0.841713    Uiso  ? C
   C262       1.0     0.706375     0.694961     0.877208    Uiso  ? C
   C263       1.0     0.877208     0.706375     0.694960    Uiso  ? C
   C264       1.0     0.694960     0.877207     0.706375    Uiso  ? C
   H1         1.0     0.618449     0.289412     0.042971    Uiso  ? H
   H2         1.0     0.424334     0.309943     0.053349    Uiso  ? H
   H3         1.0     0.482892     0.323844     0.162922    Uiso  ? H
   H4         1.0     0.674330     0.196652     0.059945    Uiso  ? H
   H5         1.0     0.957031     0.118450     0.210589    Uiso  ? H
   H6         1.0     0.868452     0.207034     0.039407    Uiso  ? H
   H7         1.0     0.940055     0.174335     0.303357    Uiso  ? H
   H8         1.0     0.732884     0.087080     0.073844    Uiso  ? H
   H9         1.0     0.042972     0.618448     0.289416    Uiso  ? H
   H10        1.0     0.053348     0.424329     0.309937    Uiso  ? H
   H11        1.0     0.162921     0.482889     0.323843    Uiso  ? H
   H12        1.0     0.587077     0.426157     0.267111    Uiso  ? H
   H13        1.0     0.960585     0.368450     0.292974    Uiso  ? H
   H14        1.0     0.707033     0.460586     0.131552    Uiso  ? H
   H15        1.0     0.690059     0.553351     0.075669    Uiso  ? H
   H16        1.0     0.676154     0.662921     0.017110    Uiso  ? H
   H17        1.0     0.696647     0.440063     0.325669    Uiso  ? H
   H18        1.0     0.059941     0.674331     0.196648    Uiso  ? H
   H19        1.0     0.210575     0.957030     0.118440    Uiso  ? H
   H20        1.0     0.039430     0.868441     0.207024    Uiso  ? H
   H21        1.0     0.303348     0.940059     0.174331    Uiso  ? H
   H22        1.0     0.073844     0.732893     0.087079    Uiso  ? H
   H23        1.0     0.412921     0.926157     0.232892    Uiso  ? H
   H24        1.0     0.837077     0.982897     0.176159    Uiso  ? H
   H25        1.0     0.946654     0.924334     0.190061    Uiso  ? H
   H26        1.0     0.289415     0.042972     0.618443    Uiso  ? H
   H27        1.0     0.309943     0.053356     0.424333    Uiso  ? H
   H28        1.0     0.323843     0.162919     0.482882    Uiso  ? H
   H29        1.0     0.426166     0.267104     0.587072    Uiso  ? H
   H30        1.0     0.926155     0.232890     0.412922    Uiso  ? H
   H31        1.0     0.267109     0.587077     0.426158    Uiso  ? H
   H32        1.0     0.789413     0.457029     0.381551    Uiso  ? H
   H33        1.0     0.792972     0.539414     0.631551    Uiso  ? H
   H34        1.0     0.809941     0.446649     0.575670    Uiso  ? H
   H35        1.0     0.823844     0.337078     0.517110    Uiso  ? H
   H36        1.0     0.131549     0.707029     0.460589    Uiso  ? H
   H37        1.0     0.292973     0.960587     0.368449    Uiso  ? H
   H38        1.0     0.075667     0.690061     0.553351    Uiso  ? H
   H39        1.0     0.017112     0.676154     0.662922    Uiso  ? H
   H40        1.0     0.325669     0.696650     0.440061    Uiso  ? H
   H41        1.0     0.631553     0.792971     0.539414    Uiso  ? H
   H42        1.0     0.381553     0.789416     0.457029    Uiso  ? H
   H43        1.0     0.575672     0.809942     0.446649    Uiso  ? H
   H44        1.0     0.517113     0.823847     0.337079    Uiso  ? H
   H45        1.0     0.881552     0.710585     0.542972    Uiso  ? H
   H46        1.0     0.825670     0.803350     0.559940    Uiso  ? H
   H47        1.0     0.767110     0.912923     0.573842    Uiso  ? H
   H48        1.0     0.196659     0.059922     0.674327    Uiso  ? H
   H49        1.0     0.118466     0.210616     0.957030    Uiso  ? H
   H50        1.0     0.207036     0.039382     0.868466    Uiso  ? H
   H51        1.0     0.174328     0.303358     0.940077    Uiso  ? H
   H52        1.0     0.087078     0.073840     0.732878    Uiso  ? H
   H53        1.0     0.368444     0.292972     0.960578    Uiso  ? H
   H54        1.0     0.460593     0.131545     0.707029    Uiso  ? H
   H55        1.0     0.553351     0.075666     0.690061    Uiso  ? H
   H56        1.0     0.662921     0.017112     0.676157    Uiso  ? H
   H57        1.0     0.440053     0.325668     0.696653    Uiso  ? H
   H58        1.0     0.982874     0.176153     0.837091    Uiso  ? H
   H59        1.0     0.924327     0.190073     0.946661    Uiso  ? H
   H60        1.0     0.232893     0.412928     0.926158    Uiso  ? H
   H61        1.0     0.457020     0.381557     0.789431    Uiso  ? H
   H62        1.0     0.539410     0.631551     0.792967    Uiso  ? H
   H63        1.0     0.446646     0.575670     0.809946    Uiso  ? H
   H64        1.0     0.337080     0.517114     0.823846    Uiso  ? H
   H65        1.0     0.710585     0.542973     0.881551    Uiso  ? H
   H66        1.0     0.803351     0.559941     0.825669    Uiso  ? H
   H67        1.0     0.912922     0.573846     0.767111    Uiso  ? H
   H68        1.0     0.176153     0.837068     0.982895    Uiso  ? H
   H69        1.0     0.190052     0.946634     0.924333    Uiso  ? H
   H70        1.0     0.542972     0.881551     0.710586    Uiso  ? H
   H71        1.0     0.559939     0.825667     0.803352    Uiso  ? H
   H72        1.0     0.573844     0.767110     0.912924    Uiso  ? H
   N1         1.0     0.825507     0.097404     0.108101    Uiso  ? N
   N2         1.0     0.847410     0.075505     0.141892    Uiso  ? N
   N3         1.0     0.597408     0.391896     0.174494    Uiso  ? N
   N4         1.0     0.575506     0.358106     0.152592    Uiso  ? N
   N5         1.0     0.141900     0.847410     0.075508    Uiso  ? N
   N6         1.0     0.108107     0.825506     0.097403    Uiso  ? N
   N7         1.0     0.402593     0.891894     0.325505    Uiso  ? N
   N8         1.0     0.358105     0.152598     0.575505    Uiso  ? N
   N9         1.0     0.391897     0.174498     0.597409    Uiso  ? N
   N10        1.0     0.891896     0.325506     0.402593    Uiso  ? N
   N11        1.0     0.174494     0.597406     0.391895    Uiso  ? N
   N12        1.0     0.152592     0.575504     0.358105    Uiso  ? N
   N13        1.0     0.858105     0.347408     0.424494    Uiso  ? N
   N14        1.0     0.924495     0.641895     0.652592    Uiso  ? N
   N15        1.0     0.424494     0.858104     0.347408    Uiso  ? N
   N16        1.0     0.652594     0.924495     0.641896    Uiso  ? N
   N17        1.0     0.674496     0.902592     0.608105    Uiso  ? N
   N18        1.0     0.097404     0.108100     0.825499    Uiso  ? N
   N19        1.0     0.075499     0.141895     0.847403    Uiso  ? N
   N20        1.0     0.325506     0.402589     0.891896    Uiso  ? N
   N21        1.0     0.641895     0.652593     0.924494    Uiso  ? N
   N22        1.0     0.347402     0.424494     0.858103    Uiso  ? N
   N23        1.0     0.902593     0.608105     0.674494    Uiso  ? N
   N24        1.0     0.608105     0.674495     0.902591    Uiso  ? N
