
#======================================================================
# CRYSTAL DATA
#----------------------------------------------------------------------
data_VESTA_phase_1

_chemical_name_common                  'POSCAR file written by OVITO Basic 3.8'
_cell_length_a                         23.597099
_cell_length_b                         23.597099
_cell_length_c                         23.597099
_cell_angle_alpha                      90.000000
_cell_angle_beta                       90.000000
_cell_angle_gamma                      90.000000
_cell_volume                           13139.409881
_space_group_name_H-M_alt              'P 1'
_space_group_IT_number                 1

loop_
_space_group_symop_operation_xyz
   'x, y, z'

loop_
   _atom_site_label
   _atom_site_occupancy
   _atom_site_fract_x
   _atom_site_fract_y
   _atom_site_fract_z
   _atom_site_adp_type
   _atom_site_U_iso_or_equiv
   _atom_site_type_symbol
   C1         1.0     0.618959     0.272130     0.100821    Uiso  ? C
   C2         1.0     0.654833     0.226877     0.107387    Uiso  ? C
   C3         1.0     0.639706     0.235646     0.205009    Uiso  ? C
   C4         1.0     0.665911     0.314924     0.293390    Uiso  ? C
   C5         1.0     0.660247     0.215122     0.257378    Uiso  ? C
   C6         1.0     0.622245     0.292063     0.203367    Uiso  ? C
   C7         1.0     0.868959     0.149179     0.022129    Uiso  ? C
   C8         1.0     0.899179     0.118959     0.227870    Uiso  ? C
   C9         1.0     0.892613     0.154833     0.273123    Uiso  ? C
   C10        1.0     0.884887     0.025966     0.139126    Uiso  ? C
   C11        1.0     0.775967     0.134887     0.110874    Uiso  ? C
   C12        1.0     0.830160     0.111466     0.106319    Uiso  ? C
   C13        1.0     0.861466     0.080160     0.143681    Uiso  ? C
   C14        1.0     0.699341     0.170493     0.246224    Uiso  ? C
   C15        1.0     0.753776     0.199341     0.329507    Uiso  ? C
   C16        1.0     0.670493     0.253776     0.300659    Uiso  ? C
   C17        1.0     0.794991     0.139706     0.264354    Uiso  ? C
   C18        1.0     0.706610     0.165911     0.185076    Uiso  ? C
   C19        1.0     0.742622     0.160247     0.284878    Uiso  ? C
   C20        1.0     0.872245     0.046633     0.042063    Uiso  ? C
   C21        1.0     0.796633     0.122245     0.207937    Uiso  ? C
   C22        1.0     0.889809     0.006518     0.084328    Uiso  ? C
   C23        1.0     0.756518     0.139809     0.165672    Uiso  ? C
   C24        1.0     0.666699     0.205509     0.159944    Uiso  ? C
   C25        1.0     0.840056     0.166699     0.294491    Uiso  ? C
   C26        1.0     0.100821     0.618959     0.272130    Uiso  ? C
   C27        1.0     0.107387     0.654833     0.226877    Uiso  ? C
   C28        1.0     0.205009     0.639706     0.235646    Uiso  ? C
   C29        1.0     0.293390     0.665911     0.314924    Uiso  ? C
   C30        1.0     0.257378     0.660247     0.215122    Uiso  ? C
   C31        1.0     0.203367     0.622245     0.292063    Uiso  ? C
   C32        1.0     0.639809     0.334328     0.243482    Uiso  ? C
   C33        1.0     0.649179     0.477870     0.131041    Uiso  ? C
   C34        1.0     0.642613     0.523123     0.095167    Uiso  ? C
   C35        1.0     0.404833     0.357387     0.023123    Uiso  ? C
   C36        1.0     0.525967     0.360874     0.115113    Uiso  ? C
   C37        1.0     0.634887     0.389126     0.224033    Uiso  ? C
   C38        1.0     0.611466     0.393681     0.169840    Uiso  ? C
   C39        1.0     0.580160     0.356319     0.138534    Uiso  ? C
   C40        1.0     0.503776     0.579507     0.050659    Uiso  ? C
   C41        1.0     0.449341     0.496224     0.079507    Uiso  ? C
   C42        1.0     0.544991     0.514354     0.110294    Uiso  ? C
   C43        1.0     0.389706     0.455009     0.014354    Uiso  ? C
   C44        1.0     0.456610     0.435076     0.084089    Uiso  ? C
   C45        1.0     0.564924     0.584089     0.043390    Uiso  ? C
   C46        1.0     0.465122     0.589753     0.007378    Uiso  ? C
   C47        1.0     0.492622     0.534878     0.089753    Uiso  ? C
   C48        1.0     0.410247     0.507378     0.034878    Uiso  ? C
   C49        1.0     0.546633     0.457937     0.127755    Uiso  ? C
   C50        1.0     0.506518     0.415672     0.110191    Uiso  ? C
   C51        1.0     0.590056     0.544491     0.083301    Uiso  ? C
   C52        1.0     0.416699     0.409944     0.044491    Uiso  ? C
   C53        1.0     0.705509     0.340056     0.333301    Uiso  ? C
   C54        1.0     0.227870     0.899179     0.118959    Uiso  ? C
   C55        1.0     0.022129     0.868959     0.149179    Uiso  ? C
   C56        1.0     0.273123     0.892613     0.154833    Uiso  ? C
   C57        1.0     0.110874     0.775967     0.134887    Uiso  ? C
   C58        1.0     0.139126     0.884887     0.025966    Uiso  ? C
   C59        1.0     0.143681     0.861466     0.080160    Uiso  ? C
   C60        1.0     0.106319     0.830160     0.111466    Uiso  ? C
   C61        1.0     0.300659     0.670493     0.253776    Uiso  ? C
   C62        1.0     0.246224     0.699341     0.170493    Uiso  ? C
   C63        1.0     0.329507     0.753776     0.199341    Uiso  ? C
   C64        1.0     0.264354     0.794991     0.139706    Uiso  ? C
   C65        1.0     0.185076     0.706610     0.165911    Uiso  ? C
   C66        1.0     0.284878     0.742622     0.160247    Uiso  ? C
   C67        1.0     0.207937     0.796633     0.122245    Uiso  ? C
   C68        1.0     0.042063     0.872245     0.046633    Uiso  ? C
   C69        1.0     0.165672     0.756518     0.139809    Uiso  ? C
   C70        1.0     0.084328     0.889809     0.006518    Uiso  ? C
   C71        1.0     0.294491     0.840056     0.166699    Uiso  ? C
   C72        1.0     0.159944     0.666699     0.205509    Uiso  ? C
   C73        1.0     0.365113     0.889126     0.275967    Uiso  ? C
   C74        1.0     0.360294     0.735646     0.294991    Uiso  ? C
   C75        1.0     0.334089     0.814924     0.206610    Uiso  ? C
   C76        1.0     0.339753     0.715122     0.242622    Uiso  ? C
   C77        1.0     0.377755     0.792063     0.296633    Uiso  ? C
   C78        1.0     0.360191     0.834328     0.256518    Uiso  ? C
   C79        1.0     0.388534     0.893681     0.330160    Uiso  ? C
   C80        1.0     0.976877     0.904833     0.142613    Uiso  ? C
   C81        1.0     0.920493     0.949341     0.003776    Uiso  ? C
   C82        1.0     0.985646     0.889706     0.044991    Uiso  ? C
   C83        1.0     0.915911     0.956610     0.064924    Uiso  ? C
   C84        1.0     0.955509     0.916699     0.090056    Uiso  ? C
   C85        1.0     0.272130     0.100821     0.618959    Uiso  ? C
   C86        1.0     0.226877     0.107387     0.654833    Uiso  ? C
   C87        1.0     0.235646     0.205009     0.639706    Uiso  ? C
   C88        1.0     0.314924     0.293390     0.665911    Uiso  ? C
   C89        1.0     0.215122     0.257378     0.660247    Uiso  ? C
   C90        1.0     0.292063     0.203367     0.622245    Uiso  ? C
   C91        1.0     0.334328     0.243482     0.639809    Uiso  ? C
   C92        1.0     0.477870     0.131041     0.649179    Uiso  ? C
   C93        1.0     0.357387     0.023123     0.404833    Uiso  ? C
   C94        1.0     0.523123     0.095167     0.642613    Uiso  ? C
   C95        1.0     0.389126     0.224033     0.634887    Uiso  ? C
   C96        1.0     0.360874     0.115113     0.525967    Uiso  ? C
   C97        1.0     0.356319     0.138534     0.580160    Uiso  ? C
   C98        1.0     0.393681     0.169840     0.611466    Uiso  ? C
   C99        1.0     0.579507     0.050659     0.503776    Uiso  ? C
   C100       1.0     0.496224     0.079507     0.449341    Uiso  ? C
   C101       1.0     0.455009     0.014354     0.389706    Uiso  ? C
   C102       1.0     0.514354     0.110294     0.544991    Uiso  ? C
   C103       1.0     0.584089     0.043390     0.564924    Uiso  ? C
   C104       1.0     0.435076     0.084089     0.456610    Uiso  ? C
   C105       1.0     0.534878     0.089753     0.492622    Uiso  ? C
   C106       1.0     0.507378     0.034878     0.410247    Uiso  ? C
   C107       1.0     0.589753     0.007378     0.465122    Uiso  ? C
   C108       1.0     0.457937     0.127755     0.546633    Uiso  ? C
   C109       1.0     0.415672     0.110191     0.506518    Uiso  ? C
   C110       1.0     0.409944     0.044491     0.416699    Uiso  ? C
   C111       1.0     0.544491     0.083301     0.590056    Uiso  ? C
   C112       1.0     0.889126     0.275967     0.365113    Uiso  ? C
   C113       1.0     0.735646     0.294991     0.360294    Uiso  ? C
   C114       1.0     0.814924     0.206610     0.334089    Uiso  ? C
   C115       1.0     0.715122     0.242622     0.339753    Uiso  ? C
   C116       1.0     0.792063     0.296633     0.377755    Uiso  ? C
   C117       1.0     0.834328     0.256518     0.360191    Uiso  ? C
   C118       1.0     0.893681     0.330160     0.388534    Uiso  ? C
   C119       1.0     0.243482     0.639809     0.334328    Uiso  ? C
   C120       1.0     0.131041     0.649179     0.477870    Uiso  ? C
   C121       1.0     0.095167     0.642613     0.523123    Uiso  ? C
   C122       1.0     0.023123     0.404833     0.357387    Uiso  ? C
   C123       1.0     0.115113     0.525967     0.360874    Uiso  ? C
   C124       1.0     0.224033     0.634887     0.389126    Uiso  ? C
   C125       1.0     0.169840     0.611466     0.393681    Uiso  ? C
   C126       1.0     0.138534     0.580160     0.356319    Uiso  ? C
   C127       1.0     0.079507     0.449341     0.496224    Uiso  ? C
   C128       1.0     0.050659     0.503776     0.579507    Uiso  ? C
   C129       1.0     0.110294     0.544991     0.514354    Uiso  ? C
   C130       1.0     0.014354     0.389706     0.455009    Uiso  ? C
   C131       1.0     0.043390     0.564924     0.584089    Uiso  ? C
   C132       1.0     0.084089     0.456610     0.435076    Uiso  ? C
   C133       1.0     0.034878     0.410247     0.507378    Uiso  ? C
   C134       1.0     0.007378     0.465122     0.589753    Uiso  ? C
   C135       1.0     0.089753     0.492622     0.534878    Uiso  ? C
   C136       1.0     0.127755     0.546633     0.457937    Uiso  ? C
   C137       1.0     0.110191     0.506518     0.415672    Uiso  ? C
   C138       1.0     0.083301     0.590056     0.544491    Uiso  ? C
   C139       1.0     0.044491     0.416699     0.409944    Uiso  ? C
   C140       1.0     0.772130     0.399179     0.381041    Uiso  ? C
   C141       1.0     0.850821     0.522130     0.631041    Uiso  ? C
   C142       1.0     0.977870     0.368959     0.350821    Uiso  ? C
   C143       1.0     0.726877     0.392613     0.345167    Uiso  ? C
   C144       1.0     0.857387     0.476877     0.595167    Uiso  ? C
   C145       1.0     0.974033     0.639126     0.615113    Uiso  ? C
   C146       1.0     0.860874     0.384887     0.474033    Uiso  ? C
   C147       1.0     0.856319     0.361466     0.419840    Uiso  ? C
   C148       1.0     0.919840     0.643681     0.638534    Uiso  ? C
   C149       1.0     0.996224     0.420493     0.550659    Uiso  ? C
   C150       1.0     0.955009     0.485646     0.610294    Uiso  ? C
   C151       1.0     0.935076     0.415911     0.543390    Uiso  ? C
   C152       1.0     0.953367     0.542063     0.627755    Uiso  ? C
   C153       1.0     0.957937     0.372245     0.453367    Uiso  ? C
   C154       1.0     0.993482     0.584328     0.610191    Uiso  ? C
   C155       1.0     0.915672     0.389809     0.493482    Uiso  ? C
   C156       1.0     0.909944     0.455509     0.583301    Uiso  ? C
   C157       1.0     0.333301     0.705509     0.340056    Uiso  ? C
   C158       1.0     0.350821     0.977870     0.368959    Uiso  ? C
   C159       1.0     0.381041     0.772130     0.399179    Uiso  ? C
   C160       1.0     0.631041     0.850821     0.522130    Uiso  ? C
   C161       1.0     0.345167     0.726877     0.392613    Uiso  ? C
   C162       1.0     0.595167     0.857387     0.476877    Uiso  ? C
   C163       1.0     0.474033     0.860874     0.384887    Uiso  ? C
   C164       1.0     0.615113     0.974033     0.639126    Uiso  ? C
   C165       1.0     0.419840     0.856319     0.361466    Uiso  ? C
   C166       1.0     0.638534     0.919840     0.643681    Uiso  ? C
   C167       1.0     0.550659     0.996224     0.420493    Uiso  ? C
   C168       1.0     0.610294     0.955009     0.485646    Uiso  ? C
   C169       1.0     0.543390     0.935076     0.415911    Uiso  ? C
   C170       1.0     0.453367     0.957937     0.372245    Uiso  ? C
   C171       1.0     0.627755     0.953367     0.542063    Uiso  ? C
   C172       1.0     0.493482     0.915672     0.389809    Uiso  ? C
   C173       1.0     0.610191     0.993482     0.584328    Uiso  ? C
   C174       1.0     0.583301     0.909944     0.455509    Uiso  ? C
   C175       1.0     0.669840     0.888534     0.606319    Uiso  ? C
   C176       1.0     0.881041     0.727870     0.600821    Uiso  ? C
   C177       1.0     0.845167     0.773123     0.607387    Uiso  ? C
   C178       1.0     0.724033     0.865113     0.610874    Uiso  ? C
   C179       1.0     0.833301     0.794491     0.659944    Uiso  ? C
   C180       1.0     0.743482     0.860191     0.665672    Uiso  ? C
   C181       1.0     0.149179     0.022129     0.868959    Uiso  ? C
   C182       1.0     0.118959     0.227870     0.899179    Uiso  ? C
   C183       1.0     0.154833     0.273123     0.892613    Uiso  ? C
   C184       1.0     0.025966     0.139126     0.884887    Uiso  ? C
   C185       1.0     0.134887     0.110874     0.775967    Uiso  ? C
   C186       1.0     0.111466     0.106319     0.830160    Uiso  ? C
   C187       1.0     0.080160     0.143681     0.861466    Uiso  ? C
   C188       1.0     0.199341     0.329507     0.753776    Uiso  ? C
   C189       1.0     0.253776     0.300659     0.670493    Uiso  ? C
   C190       1.0     0.170493     0.246224     0.699341    Uiso  ? C
   C191       1.0     0.139706     0.264354     0.794991    Uiso  ? C
   C192       1.0     0.165911     0.185076     0.706610    Uiso  ? C
   C193       1.0     0.160247     0.284878     0.742622    Uiso  ? C
   C194       1.0     0.046633     0.042063     0.872245    Uiso  ? C
   C195       1.0     0.122245     0.207937     0.796633    Uiso  ? C
   C196       1.0     0.006518     0.084328     0.889809    Uiso  ? C
   C197       1.0     0.139809     0.165672     0.756518    Uiso  ? C
   C198       1.0     0.205509     0.159944     0.666699    Uiso  ? C
   C199       1.0     0.166699     0.294491     0.840056    Uiso  ? C
   C200       1.0     0.340056     0.333301     0.705509    Uiso  ? C
   C201       1.0     0.904833     0.142613     0.976877    Uiso  ? C
   C202       1.0     0.949341     0.003776     0.920493    Uiso  ? C
   C203       1.0     0.889706     0.044991     0.985646    Uiso  ? C
   C204       1.0     0.956610     0.064924     0.915911    Uiso  ? C
   C205       1.0     0.916699     0.090056     0.955509    Uiso  ? C
   C206       1.0     0.275967     0.365113     0.889126    Uiso  ? C
   C207       1.0     0.294991     0.360294     0.735646    Uiso  ? C
   C208       1.0     0.206610     0.334089     0.814924    Uiso  ? C
   C209       1.0     0.242622     0.339753     0.715122    Uiso  ? C
   C210       1.0     0.296633     0.377755     0.792063    Uiso  ? C
   C211       1.0     0.256518     0.360191     0.834328    Uiso  ? C
   C212       1.0     0.330160     0.388534     0.893681    Uiso  ? C
   C213       1.0     0.368959     0.350821     0.977870    Uiso  ? C
   C214       1.0     0.522130     0.631041     0.850821    Uiso  ? C
   C215       1.0     0.399179     0.381041     0.772130    Uiso  ? C
   C216       1.0     0.476877     0.595167     0.857387    Uiso  ? C
   C217       1.0     0.392613     0.345167     0.726877    Uiso  ? C
   C218       1.0     0.384887     0.474033     0.860874    Uiso  ? C
   C219       1.0     0.639126     0.615113     0.974033    Uiso  ? C
   C220       1.0     0.643681     0.638534     0.919840    Uiso  ? C
   C221       1.0     0.361466     0.419840     0.856319    Uiso  ? C
   C222       1.0     0.420493     0.550659     0.996224    Uiso  ? C
   C223       1.0     0.485646     0.610294     0.955009    Uiso  ? C
   C224       1.0     0.415911     0.543390     0.935076    Uiso  ? C
   C225       1.0     0.372245     0.453367     0.957937    Uiso  ? C
   C226       1.0     0.542063     0.627755     0.953367    Uiso  ? C
   C227       1.0     0.389809     0.493482     0.915672    Uiso  ? C
   C228       1.0     0.584328     0.610191     0.993482    Uiso  ? C
   C229       1.0     0.455509     0.583301     0.909944    Uiso  ? C
   C230       1.0     0.888534     0.606319     0.669840    Uiso  ? C
   C231       1.0     0.727870     0.600821     0.881041    Uiso  ? C
   C232       1.0     0.773123     0.607387     0.845167    Uiso  ? C
   C233       1.0     0.865113     0.610874     0.724033    Uiso  ? C
   C234       1.0     0.794491     0.659944     0.833301    Uiso  ? C
   C235       1.0     0.860191     0.665672     0.743482    Uiso  ? C
   C236       1.0     0.142613     0.976877     0.904833    Uiso  ? C
   C237       1.0     0.003776     0.920493     0.949341    Uiso  ? C
   C238       1.0     0.044991     0.985646     0.889706    Uiso  ? C
   C239       1.0     0.064924     0.915911     0.956610    Uiso  ? C
   C240       1.0     0.090056     0.955509     0.916699    Uiso  ? C
   C241       1.0     0.606319     0.669840     0.888534    Uiso  ? C
   C242       1.0     0.600821     0.881041     0.727870    Uiso  ? C
   C243       1.0     0.607387     0.845167     0.773123    Uiso  ? C
   C244       1.0     0.610874     0.724033     0.865113    Uiso  ? C
   C245       1.0     0.659944     0.833301     0.794491    Uiso  ? C
   C246       1.0     0.665672     0.743482     0.860191    Uiso  ? C
   C247       1.0     0.800659     0.829507     0.746224    Uiso  ? C
   C248       1.0     0.746224     0.800659     0.829507    Uiso  ? C
   C249       1.0     0.829507     0.746224     0.800659    Uiso  ? C
   C250       1.0     0.764354     0.705009     0.860294    Uiso  ? C
   C251       1.0     0.860294     0.764354     0.705009    Uiso  ? C
   C252       1.0     0.705009     0.860294     0.764354    Uiso  ? C
   C253       1.0     0.685076     0.793390     0.834089    Uiso  ? C
   C254       1.0     0.834089     0.685076     0.793390    Uiso  ? C
   C255       1.0     0.793390     0.834089     0.685076    Uiso  ? C
   C256       1.0     0.965122     0.910247     0.992622    Uiso  ? C
   C257       1.0     0.839753     0.784878     0.757378    Uiso  ? C
   C258       1.0     0.992622     0.965122     0.910247    Uiso  ? C
   C259       1.0     0.757378     0.839753     0.784878    Uiso  ? C
   C260       1.0     0.910247     0.992622     0.965122    Uiso  ? C
   C261       1.0     0.784878     0.757378     0.839753    Uiso  ? C
   C262       1.0     0.707937     0.703367     0.877755    Uiso  ? C
   C263       1.0     0.877755     0.707937     0.703367    Uiso  ? C
   C264       1.0     0.703367     0.877755     0.707937    Uiso  ? C
   N1         1.0     0.608124     0.306163     0.148582    Uiso  ? N
   N2         1.0     0.858124     0.101418     0.056163    Uiso  ? N
   N3         1.0     0.851418     0.108124     0.193837    Uiso  ? N
   N4         1.0     0.148582     0.608124     0.306163    Uiso  ? N
   N5         1.0     0.601418     0.443837     0.141876    Uiso  ? N
   N6         1.0     0.193837     0.851418     0.108124    Uiso  ? N
   N7         1.0     0.056163     0.858124     0.101418    Uiso  ? N
   N8         1.0     0.306163     0.148582     0.608124    Uiso  ? N
   N9         1.0     0.443837     0.141876     0.601418    Uiso  ? N
   N10        1.0     0.141876     0.601418     0.443837    Uiso  ? N
   N11        1.0     0.806163     0.351418     0.391876    Uiso  ? N
   N12        1.0     0.898582     0.556163     0.641876    Uiso  ? N
   N13        1.0     0.943837     0.358124     0.398582    Uiso  ? N
   N14        1.0     0.398582     0.943837     0.358124    Uiso  ? N
   N15        1.0     0.391876     0.806163     0.351418    Uiso  ? N
   N16        1.0     0.641876     0.898582     0.556163    Uiso  ? N
   N17        1.0     0.891876     0.693837     0.648582    Uiso  ? N
   N18        1.0     0.101418     0.056163     0.858124    Uiso  ? N
   N19        1.0     0.108124     0.193837     0.851418    Uiso  ? N
   N20        1.0     0.358124     0.398582     0.943837    Uiso  ? N
   N21        1.0     0.556163     0.641876     0.898582    Uiso  ? N
   N22        1.0     0.351418     0.391876     0.806163    Uiso  ? N
   N23        1.0     0.693837     0.648582     0.891876    Uiso  ? N
   N24        1.0     0.648582     0.891876     0.693837    Uiso  ? N
   H1         1.0     0.597873     0.281900     0.058454    Uiso  ? H
   H2         1.0     0.423562     0.319774     0.042138    Uiso  ? H
   H3         1.0     0.501880     0.323641     0.102594    Uiso  ? H
   H4         1.0     0.673562     0.207862     0.069774    Uiso  ? H
   H5         1.0     0.941546     0.097873     0.218100    Uiso  ? H
   H6         1.0     0.847873     0.191546     0.031900    Uiso  ? H
   H7         1.0     0.930226     0.173562     0.292138    Uiso  ? H
   H8         1.0     0.897406     0.001880     0.176359    Uiso  ? H
   H9         1.0     0.751880     0.147406     0.073641    Uiso  ? H
   H10        1.0     0.058454     0.597873     0.281900    Uiso  ? H
   H11        1.0     0.042138     0.423562     0.319774    Uiso  ? H
   H12        1.0     0.102594     0.501880     0.323641    Uiso  ? H
   H13        1.0     0.647406     0.426359     0.248120    Uiso  ? H
   H14        1.0     0.968100     0.347873     0.308454    Uiso  ? H
   H15        1.0     0.691546     0.468100     0.152127    Uiso  ? H
   H16        1.0     0.680226     0.542138     0.076438    Uiso  ? H
   H17        1.0     0.707862     0.430226     0.326438    Uiso  ? H
   H18        1.0     0.069774     0.673562     0.207862    Uiso  ? H
   H19        1.0     0.218100     0.941546     0.097873    Uiso  ? H
   H20        1.0     0.031900     0.847873     0.191546    Uiso  ? H
   H21        1.0     0.292138     0.930226     0.173562    Uiso  ? H
   H22        1.0     0.073641     0.751880     0.147406    Uiso  ? H
   H23        1.0     0.176359     0.897406     0.001880    Uiso  ? H
   H24        1.0     0.352594     0.926359     0.251880    Uiso  ? H
   H25        1.0     0.957862     0.923562     0.180226    Uiso  ? H
   H26        1.0     0.281900     0.058454     0.597873    Uiso  ? H
   H27        1.0     0.319774     0.042138     0.423562    Uiso  ? H
   H28        1.0     0.323641     0.102594     0.501880    Uiso  ? H
   H29        1.0     0.426359     0.248120     0.647406    Uiso  ? H
   H30        1.0     0.926359     0.251880     0.352594    Uiso  ? H
   H31        1.0     0.248120     0.647406     0.426359    Uiso  ? H
   H32        1.0     0.781900     0.441546     0.402127    Uiso  ? H
   H33        1.0     0.808454     0.531900     0.652127    Uiso  ? H
   H34        1.0     0.819774     0.457862     0.576438    Uiso  ? H
   H35        1.0     0.823641     0.397406     0.498120    Uiso  ? H
   H36        1.0     0.152127     0.691546     0.468100    Uiso  ? H
   H37        1.0     0.308454     0.968100     0.347873    Uiso  ? H
   H38        1.0     0.076438     0.680226     0.542138    Uiso  ? H
   H39        1.0     0.326438     0.707862     0.430226    Uiso  ? H
   H40        1.0     0.652127     0.808454     0.531900    Uiso  ? H
   H41        1.0     0.402127     0.781900     0.441546    Uiso  ? H
   H42        1.0     0.576438     0.819774     0.457862    Uiso  ? H
   H43        1.0     0.498120     0.823641     0.397406    Uiso  ? H
   H44        1.0     0.902127     0.718100     0.558454    Uiso  ? H
   H45        1.0     0.826438     0.792138     0.569774    Uiso  ? H
   H46        1.0     0.998120     0.676359     0.602594    Uiso  ? H
   H47        1.0     0.748120     0.852594     0.573641    Uiso  ? H
   H48        1.0     0.207862     0.069774     0.673562    Uiso  ? H
   H49        1.0     0.097873     0.218100     0.941546    Uiso  ? H
   H50        1.0     0.191546     0.031900     0.847873    Uiso  ? H
   H51        1.0     0.173562     0.292138     0.930226    Uiso  ? H
   H52        1.0     0.001880     0.176359     0.897406    Uiso  ? H
   H53        1.0     0.147406     0.073641     0.751880    Uiso  ? H
   H54        1.0     0.347873     0.308454     0.968100    Uiso  ? H
   H55        1.0     0.468100     0.152127     0.691546    Uiso  ? H
   H56        1.0     0.542138     0.076438     0.680226    Uiso  ? H
   H57        1.0     0.430226     0.326438     0.707862    Uiso  ? H
   H58        1.0     0.923562     0.180226     0.957862    Uiso  ? H
   H59        1.0     0.251880     0.352594     0.926359    Uiso  ? H
   H60        1.0     0.441546     0.402127     0.781900    Uiso  ? H
   H61        1.0     0.531900     0.652127     0.808454    Uiso  ? H
   H62        1.0     0.457862     0.576438     0.819774    Uiso  ? H
   H63        1.0     0.397406     0.498120     0.823641    Uiso  ? H
   H64        1.0     0.718100     0.558454     0.902127    Uiso  ? H
   H65        1.0     0.792138     0.569774     0.826438    Uiso  ? H
   H66        1.0     0.852594     0.573641     0.748120    Uiso  ? H
   H67        1.0     0.676359     0.602594     0.998120    Uiso  ? H
   H68        1.0     0.180226     0.957862     0.923562    Uiso  ? H
   H69        1.0     0.558454     0.902127     0.718100    Uiso  ? H
   H70        1.0     0.569774     0.826438     0.792138    Uiso  ? H
   H71        1.0     0.573641     0.748120     0.852594    Uiso  ? H
   H72        1.0     0.602594     0.998120     0.676359    Uiso  ? H
