
#======================================================================
# CRYSTAL DATA
#----------------------------------------------------------------------
data_VESTA_phase_1

_chemical_name_common                  'POSCAR file written by OVITO Basic 3.8'
_cell_length_a                         22.599001
_cell_length_b                         22.599001
_cell_length_c                         22.599001
_cell_angle_alpha                      90.000000
_cell_angle_beta                       90.000000
_cell_angle_gamma                      90.000000
_cell_volume                           11541.645214
_space_group_name_H-M_alt              'P 1'
_space_group_IT_number                 1

loop_
_space_group_symop_operation_xyz
   'x, y, z'

loop_
   _atom_site_label
   _atom_site_occupancy
   _atom_site_fract_x
   _atom_site_fract_y
   _atom_site_fract_z
   _atom_site_adp_type
   _atom_site_U_iso_or_equiv
   _atom_site_type_symbol
   C1         1.0     0.612468     0.256721     0.094566    Uiso  ? C
   C2         1.0     0.646648     0.206194     0.103035    Uiso  ? C
   C3         1.0     0.635462     0.222086     0.205753    Uiso  ? C
   C4         1.0     0.647206     0.309326     0.295536    Uiso  ? C
   C5         1.0     0.653334     0.203003     0.261097    Uiso  ? C
   C6         1.0     0.612048     0.278158     0.197723    Uiso  ? C
   C7         1.0     0.597674     0.296276     0.139824    Uiso  ? C
   C8         1.0     0.656720     0.245516     0.304645    Uiso  ? C
   C9         1.0     0.663350     0.188564     0.159259    Uiso  ? C
   C10        1.0     0.862468     0.155434     0.006721    Uiso  ? C
   C11        1.0     0.905434     0.112468     0.243279    Uiso  ? C
   C12        1.0     0.896965     0.146648     0.293806    Uiso  ? C
   C13        1.0     0.906057     0.038645     0.122827    Uiso  ? C
   C14        1.0     0.788644     0.156057     0.127173    Uiso  ? C
   C15        1.0     0.831019     0.115295     0.105650    Uiso  ? C
   C16        1.0     0.865295     0.081019     0.144350    Uiso  ? C
   C17        1.0     0.695355     0.156720     0.254484    Uiso  ? C
   C18        1.0     0.794247     0.135462     0.277914    Uiso  ? C
   C19        1.0     0.704464     0.147206     0.190674    Uiso  ? C
   C20        1.0     0.738903     0.153334     0.296997    Uiso  ? C
   C21        1.0     0.862048     0.052277     0.028158    Uiso  ? C
   C22        1.0     0.802277     0.112048     0.221842    Uiso  ? C
   C23        1.0     0.840741     0.163350     0.311436    Uiso  ? C
   C24        1.0     0.847674     0.110176     0.046276    Uiso  ? C
   C25        1.0     0.860176     0.097674     0.203724    Uiso  ? C
   C26        1.0     0.094566     0.612468     0.256721    Uiso  ? C
   C27        1.0     0.103035     0.646648     0.206194    Uiso  ? C
   C28        1.0     0.205753     0.635462     0.222086    Uiso  ? C
   C29        1.0     0.295536     0.647206     0.309326    Uiso  ? C
   C30        1.0     0.261097     0.653334     0.203003    Uiso  ? C
   C31        1.0     0.197723     0.612048     0.278158    Uiso  ? C
   C32        1.0     0.139824     0.597674     0.296276    Uiso  ? C
   C33        1.0     0.304645     0.656720     0.245516    Uiso  ? C
   C34        1.0     0.159259     0.663350     0.188564    Uiso  ? C
   C35        1.0     0.655434     0.493279     0.137532    Uiso  ? C
   C36        1.0     0.646965     0.543806     0.103352    Uiso  ? C
   C37        1.0     0.396648     0.353035     0.043806    Uiso  ? C
   C38        1.0     0.538644     0.377173     0.093943    Uiso  ? C
   C39        1.0     0.656057     0.372827     0.211356    Uiso  ? C
   C40        1.0     0.615295     0.394350     0.168981    Uiso  ? C
   C41        1.0     0.581019     0.355650     0.134705    Uiso  ? C
   C42        1.0     0.495516     0.593280     0.054645    Uiso  ? C
   C43        1.0     0.445355     0.504484     0.093280    Uiso  ? C
   C44        1.0     0.544247     0.527914     0.114538    Uiso  ? C
   C45        1.0     0.385462     0.455753     0.027914    Uiso  ? C
   C46        1.0     0.454464     0.440674     0.102794    Uiso  ? C
   C47        1.0     0.559326     0.602794     0.045536    Uiso  ? C
   C48        1.0     0.453003     0.596666     0.011097    Uiso  ? C
   C49        1.0     0.488903     0.546997     0.096666    Uiso  ? C
   C50        1.0     0.403334     0.511097     0.046997    Uiso  ? C
   C51        1.0     0.552277     0.471842     0.137952    Uiso  ? C
   C52        1.0     0.590741     0.561436     0.086649    Uiso  ? C
   C53        1.0     0.413350     0.409259     0.061436    Uiso  ? C
   C54        1.0     0.610176     0.453724     0.152326    Uiso  ? C
   C55        1.0     0.406720     0.554645     0.004484    Uiso  ? C
   C56        1.0     0.243279     0.905434     0.112468    Uiso  ? C
   C57        1.0     0.006721     0.862468     0.155434    Uiso  ? C
   C58        1.0     0.293806     0.896965     0.146648    Uiso  ? C
   C59        1.0     0.127173     0.788644     0.156057    Uiso  ? C
   C60        1.0     0.122827     0.906057     0.038645    Uiso  ? C
   C61        1.0     0.144350     0.865295     0.081019    Uiso  ? C
   C62        1.0     0.105650     0.831019     0.115295    Uiso  ? C
   C63        1.0     0.254484     0.695355     0.156720    Uiso  ? C
   C64        1.0     0.277914     0.794247     0.135462    Uiso  ? C
   C65        1.0     0.190674     0.704464     0.147206    Uiso  ? C
   C66        1.0     0.296997     0.738903     0.153334    Uiso  ? C
   C67        1.0     0.221842     0.802277     0.112048    Uiso  ? C
   C68        1.0     0.028158     0.862048     0.052277    Uiso  ? C
   C69        1.0     0.311436     0.840741     0.163350    Uiso  ? C
   C70        1.0     0.203724     0.860176     0.097674    Uiso  ? C
   C71        1.0     0.046276     0.847674     0.110176    Uiso  ? C
   C72        1.0     0.343280     0.745516     0.195355    Uiso  ? C
   C73        1.0     0.343943     0.872827     0.288644    Uiso  ? C
   C74        1.0     0.384705     0.894350     0.331019    Uiso  ? C
   C75        1.0     0.364538     0.722086     0.294247    Uiso  ? C
   C76        1.0     0.352794     0.809326     0.204464    Uiso  ? C
   C77        1.0     0.346666     0.703003     0.238903    Uiso  ? C
   C78        1.0     0.387952     0.778158     0.302277    Uiso  ? C
   C79        1.0     0.956194     0.896648     0.146965    Uiso  ? C
   C80        1.0     0.972086     0.885462     0.044248    Uiso  ? C
   C81        1.0     0.897206     0.954464     0.059326    Uiso  ? C
   C82        1.0     0.938564     0.913350     0.090741    Uiso  ? C
   C83        1.0     0.256721     0.094566     0.612468    Uiso  ? C
   C84        1.0     0.206194     0.103035     0.646648    Uiso  ? C
   C85        1.0     0.222086     0.205753     0.635462    Uiso  ? C
   C86        1.0     0.309326     0.295536     0.647206    Uiso  ? C
   C87        1.0     0.203003     0.261097     0.653334    Uiso  ? C
   C88        1.0     0.278158     0.197723     0.612048    Uiso  ? C
   C89        1.0     0.296276     0.139824     0.597674    Uiso  ? C
   C90        1.0     0.245516     0.304645     0.656720    Uiso  ? C
   C91        1.0     0.188564     0.159259     0.663350    Uiso  ? C
   C92        1.0     0.493279     0.137532     0.655434    Uiso  ? C
   C93        1.0     0.353035     0.043806     0.396648    Uiso  ? C
   C94        1.0     0.543806     0.103352     0.646965    Uiso  ? C
   C95        1.0     0.372827     0.211356     0.656057    Uiso  ? C
   C96        1.0     0.377173     0.093943     0.538644    Uiso  ? C
   C97        1.0     0.355650     0.134705     0.581019    Uiso  ? C
   C98        1.0     0.394350     0.168981     0.615295    Uiso  ? C
   C99        1.0     0.593280     0.054645     0.495516    Uiso  ? C
   C100       1.0     0.504484     0.093280     0.445355    Uiso  ? C
   C101       1.0     0.455753     0.027914     0.385462    Uiso  ? C
   C102       1.0     0.527914     0.114538     0.544247    Uiso  ? C
   C103       1.0     0.602794     0.045536     0.559326    Uiso  ? C
   C104       1.0     0.440674     0.102794     0.454464    Uiso  ? C
   C105       1.0     0.546997     0.096666     0.488903    Uiso  ? C
   C106       1.0     0.511097     0.046997     0.403334    Uiso  ? C
   C107       1.0     0.596666     0.011097     0.453003    Uiso  ? C
   C108       1.0     0.471842     0.137952     0.552277    Uiso  ? C
   C109       1.0     0.409259     0.061436     0.413350    Uiso  ? C
   C110       1.0     0.561436     0.086649     0.590741    Uiso  ? C
   C111       1.0     0.453724     0.152326     0.610176    Uiso  ? C
   C112       1.0     0.554645     0.004484     0.406720    Uiso  ? C
   C113       1.0     0.745516     0.195355     0.343280    Uiso  ? C
   C114       1.0     0.872827     0.288644     0.343943    Uiso  ? C
   C115       1.0     0.894350     0.331019     0.384705    Uiso  ? C
   C116       1.0     0.722086     0.294247     0.364538    Uiso  ? C
   C117       1.0     0.809326     0.204464     0.352794    Uiso  ? C
   C118       1.0     0.703003     0.238903     0.346666    Uiso  ? C
   C119       1.0     0.778158     0.302277     0.387952    Uiso  ? C
   C120       1.0     0.137532     0.655434     0.493279    Uiso  ? C
   C121       1.0     0.103352     0.646965     0.543806    Uiso  ? C
   C122       1.0     0.043806     0.396648     0.353035    Uiso  ? C
   C123       1.0     0.093943     0.538644     0.377173    Uiso  ? C
   C124       1.0     0.211356     0.656057     0.372827    Uiso  ? C
   C125       1.0     0.168981     0.615295     0.394350    Uiso  ? C
   C126       1.0     0.134705     0.581019     0.355650    Uiso  ? C
   C127       1.0     0.093280     0.445355     0.504484    Uiso  ? C
   C128       1.0     0.054645     0.495516     0.593280    Uiso  ? C
   C129       1.0     0.114538     0.544247     0.527914    Uiso  ? C
   C130       1.0     0.027914     0.385462     0.455753    Uiso  ? C
   C131       1.0     0.045536     0.559326     0.602794    Uiso  ? C
   C132       1.0     0.102794     0.454464     0.440674    Uiso  ? C
   C133       1.0     0.046997     0.403334     0.511097    Uiso  ? C
   C134       1.0     0.011097     0.453003     0.596666    Uiso  ? C
   C135       1.0     0.096666     0.488903     0.546997    Uiso  ? C
   C136       1.0     0.137952     0.552277     0.471842    Uiso  ? C
   C137       1.0     0.086649     0.590741     0.561436    Uiso  ? C
   C138       1.0     0.061436     0.413350     0.409259    Uiso  ? C
   C139       1.0     0.152326     0.610176     0.453724    Uiso  ? C
   C140       1.0     0.004484     0.406720     0.554645    Uiso  ? C
   C141       1.0     0.688564     0.340741     0.336650    Uiso  ? C
   C142       1.0     0.756721     0.405434     0.387532    Uiso  ? C
   C143       1.0     0.844566     0.506721     0.637532    Uiso  ? C
   C144       1.0     0.993279     0.362468     0.344566    Uiso  ? C
   C145       1.0     0.706194     0.396965     0.353352    Uiso  ? C
   C146       1.0     0.853035     0.456194     0.603352    Uiso  ? C
   C147       1.0     0.961356     0.622827     0.593943    Uiso  ? C
   C148       1.0     0.877173     0.406057     0.461356    Uiso  ? C
   C149       1.0     0.855650     0.365295     0.418981    Uiso  ? C
   C150       1.0     0.918981     0.644350     0.634705    Uiso  ? C
   C151       1.0     0.955753     0.472086     0.614538    Uiso  ? C
   C152       1.0     0.940674     0.397206     0.545536    Uiso  ? C
   C153       1.0     0.947723     0.528158     0.637952    Uiso  ? C
   C154       1.0     0.971842     0.362048     0.447723    Uiso  ? C
   C155       1.0     0.909259     0.438564     0.586650    Uiso  ? C
   C156       1.0     0.796276     0.360176     0.402326    Uiso  ? C
   C157       1.0     0.889824     0.546276     0.652326    Uiso  ? C
   C158       1.0     0.953724     0.347674     0.389824    Uiso  ? C
   C159       1.0     0.336650     0.688564     0.340741    Uiso  ? C
   C160       1.0     0.344566     0.993279     0.362468    Uiso  ? C
   C161       1.0     0.387532     0.756721     0.405434    Uiso  ? C
   C162       1.0     0.637532     0.844566     0.506721    Uiso  ? C
   C163       1.0     0.353352     0.706194     0.396965    Uiso  ? C
   C164       1.0     0.603352     0.853035     0.456194    Uiso  ? C
   C165       1.0     0.461356     0.877173     0.406057    Uiso  ? C
   C166       1.0     0.593943     0.961356     0.622827    Uiso  ? C
   C167       1.0     0.418981     0.855650     0.365295    Uiso  ? C
   C168       1.0     0.634705     0.918981     0.644350    Uiso  ? C
   C169       1.0     0.614538     0.955753     0.472086    Uiso  ? C
   C170       1.0     0.545536     0.940674     0.397206    Uiso  ? C
   C171       1.0     0.447723     0.971842     0.362048    Uiso  ? C
   C172       1.0     0.637952     0.947723     0.528158    Uiso  ? C
   C173       1.0     0.586650     0.909259     0.438564    Uiso  ? C
   C174       1.0     0.389824     0.953724     0.347674    Uiso  ? C
   C175       1.0     0.402326     0.796276     0.360176    Uiso  ? C
   C176       1.0     0.652326     0.889824     0.546276    Uiso  ? C
   C177       1.0     0.887532     0.743279     0.594566    Uiso  ? C
   C178       1.0     0.853352     0.793806     0.603035    Uiso  ? C
   C179       1.0     0.711356     0.843943     0.627173    Uiso  ? C
   C180       1.0     0.668981     0.884705     0.605650    Uiso  ? C
   C181       1.0     0.836650     0.811436     0.659259    Uiso  ? C
   C182       1.0     0.902326     0.703724     0.639824    Uiso  ? C
   C183       1.0     0.155434     0.006721     0.862468    Uiso  ? C
   C184       1.0     0.112468     0.243279     0.905434    Uiso  ? C
   C185       1.0     0.146648     0.293806     0.896965    Uiso  ? C
   C186       1.0     0.038645     0.122827     0.906057    Uiso  ? C
   C187       1.0     0.156057     0.127173     0.788644    Uiso  ? C
   C188       1.0     0.115295     0.105650     0.831019    Uiso  ? C
   C189       1.0     0.081019     0.144350     0.865295    Uiso  ? C
   C190       1.0     0.156720     0.254484     0.695355    Uiso  ? C
   C191       1.0     0.135462     0.277914     0.794247    Uiso  ? C
   C192       1.0     0.147206     0.190674     0.704464    Uiso  ? C
   C193       1.0     0.153334     0.296997     0.738903    Uiso  ? C
   C194       1.0     0.052277     0.028158     0.862048    Uiso  ? C
   C195       1.0     0.112048     0.221842     0.802277    Uiso  ? C
   C196       1.0     0.163350     0.311436     0.840741    Uiso  ? C
   C197       1.0     0.110176     0.046276     0.847674    Uiso  ? C
   C198       1.0     0.097674     0.203724     0.860176    Uiso  ? C
   C199       1.0     0.896648     0.146965     0.956194    Uiso  ? C
   C200       1.0     0.885462     0.044248     0.972086    Uiso  ? C
   C201       1.0     0.954464     0.059326     0.897206    Uiso  ? C
   C202       1.0     0.913350     0.090741     0.938564    Uiso  ? C
   C203       1.0     0.195355     0.343280     0.745516    Uiso  ? C
   C204       1.0     0.288644     0.343943     0.872827    Uiso  ? C
   C205       1.0     0.331019     0.384705     0.894350    Uiso  ? C
   C206       1.0     0.294247     0.364538     0.722086    Uiso  ? C
   C207       1.0     0.204464     0.352794     0.809326    Uiso  ? C
   C208       1.0     0.238903     0.346666     0.703003    Uiso  ? C
   C209       1.0     0.302277     0.387952     0.778158    Uiso  ? C
   C210       1.0     0.340741     0.336650     0.688564    Uiso  ? C
   C211       1.0     0.362468     0.344566     0.993279    Uiso  ? C
   C212       1.0     0.506721     0.637532     0.844566    Uiso  ? C
   C213       1.0     0.405434     0.387532     0.756721    Uiso  ? C
   C214       1.0     0.456194     0.603352     0.853035    Uiso  ? C
   C215       1.0     0.396965     0.353352     0.706194    Uiso  ? C
   C216       1.0     0.406057     0.461356     0.877173    Uiso  ? C
   C217       1.0     0.622827     0.593943     0.961356    Uiso  ? C
   C218       1.0     0.644350     0.634705     0.918981    Uiso  ? C
   C219       1.0     0.365295     0.418981     0.855650    Uiso  ? C
   C220       1.0     0.472086     0.614538     0.955753    Uiso  ? C
   C221       1.0     0.397206     0.545536     0.940674    Uiso  ? C
   C222       1.0     0.362048     0.447723     0.971842    Uiso  ? C
   C223       1.0     0.528158     0.637952     0.947723    Uiso  ? C
   C224       1.0     0.438564     0.586650     0.909259    Uiso  ? C
   C225       1.0     0.347674     0.389824     0.953724    Uiso  ? C
   C226       1.0     0.546276     0.652326     0.889824    Uiso  ? C
   C227       1.0     0.360176     0.402326     0.796276    Uiso  ? C
   C228       1.0     0.743279     0.594566     0.887532    Uiso  ? C
   C229       1.0     0.793806     0.603035     0.853352    Uiso  ? C
   C230       1.0     0.843943     0.627173     0.711356    Uiso  ? C
   C231       1.0     0.884705     0.605650     0.668981    Uiso  ? C
   C232       1.0     0.811436     0.659259     0.836650    Uiso  ? C
   C233       1.0     0.703724     0.639824     0.902326    Uiso  ? C
   C234       1.0     0.146965     0.956194     0.896648    Uiso  ? C
   C235       1.0     0.044248     0.972086     0.885462    Uiso  ? C
   C236       1.0     0.059326     0.897206     0.954464    Uiso  ? C
   C237       1.0     0.090741     0.938564     0.913350    Uiso  ? C
   C238       1.0     0.594566     0.887532     0.743279    Uiso  ? C
   C239       1.0     0.603035     0.853352     0.793806    Uiso  ? C
   C240       1.0     0.627173     0.711356     0.843943    Uiso  ? C
   C241       1.0     0.605650     0.668981     0.884705    Uiso  ? C
   C242       1.0     0.659259     0.836650     0.811436    Uiso  ? C
   C243       1.0     0.639824     0.902326     0.703724    Uiso  ? C
   C244       1.0     0.906720     0.945355     0.995516    Uiso  ? C
   C245       1.0     0.945355     0.995516     0.906720    Uiso  ? C
   C246       1.0     0.995516     0.906720     0.945355    Uiso  ? C
   C247       1.0     0.804645     0.843280     0.754484    Uiso  ? C
   C248       1.0     0.754484     0.804645     0.843280    Uiso  ? C
   C249       1.0     0.843280     0.754484     0.804645    Uiso  ? C
   C250       1.0     0.777914     0.705753     0.864538    Uiso  ? C
   C251       1.0     0.864538     0.777914     0.705753    Uiso  ? C
   C252       1.0     0.705753     0.864538     0.777914    Uiso  ? C
   C253       1.0     0.690674     0.795536     0.852794    Uiso  ? C
   C254       1.0     0.852794     0.690674     0.795536    Uiso  ? C
   C255       1.0     0.795536     0.852794     0.690674    Uiso  ? C
   C256       1.0     0.953003     0.903334     0.988903    Uiso  ? C
   C257       1.0     0.846666     0.796997     0.761097    Uiso  ? C
   C258       1.0     0.988903     0.953003     0.903334    Uiso  ? C
   C259       1.0     0.761097     0.846666     0.796997    Uiso  ? C
   C260       1.0     0.903334     0.988903     0.953003    Uiso  ? C
   C261       1.0     0.796997     0.761097     0.846666    Uiso  ? C
   C262       1.0     0.721842     0.697723     0.887952    Uiso  ? C
   C263       1.0     0.887952     0.721842     0.697723    Uiso  ? C
   C264       1.0     0.697723     0.887952     0.721842    Uiso  ? C
   N1         1.0     0.637145     0.319147     0.235558    Uiso  ? N
   N2         1.0     0.887145     0.014442     0.069147    Uiso  ? N
   N3         1.0     0.764442     0.137145     0.180853    Uiso  ? N
   N4         1.0     0.235558     0.637145     0.319147    Uiso  ? N
   N5         1.0     0.514442     0.430853     0.112855    Uiso  ? N
   N6         1.0     0.180853     0.764442     0.137145    Uiso  ? N
   N7         1.0     0.069147     0.887145     0.014442    Uiso  ? N
   N8         1.0     0.362855     0.819147     0.264442    Uiso  ? N
   N9         1.0     0.319147     0.235558     0.637145    Uiso  ? N
   N10        1.0     0.430853     0.112855     0.514442    Uiso  ? N
   N11        1.0     0.819147     0.264442     0.362855    Uiso  ? N
   N12        1.0     0.112855     0.514442     0.430853    Uiso  ? N
   N13        1.0     0.985558     0.569147     0.612855    Uiso  ? N
   N14        1.0     0.930853     0.387145     0.485558    Uiso  ? N
   N15        1.0     0.485558     0.930853     0.387145    Uiso  ? N
   N16        1.0     0.612855     0.985558     0.569147    Uiso  ? N
   N17        1.0     0.014442     0.069147     0.887145    Uiso  ? N
   N18        1.0     0.137145     0.180853     0.764442    Uiso  ? N
   N19        1.0     0.264442     0.362855     0.819147    Uiso  ? N
   N20        1.0     0.387145     0.485558     0.930853    Uiso  ? N
   N21        1.0     0.569147     0.612855     0.985558    Uiso  ? N
   N22        1.0     0.680853     0.735558     0.862855    Uiso  ? N
   N23        1.0     0.862855     0.680853     0.735558    Uiso  ? N
   N24        1.0     0.735558     0.862855     0.680853    Uiso  ? N
   H1         1.0     0.599531     0.267993     0.049515    Uiso  ? H
   H2         1.0     0.411347     0.314636     0.069026    Uiso  ? H
   H3         1.0     0.661347     0.180974     0.064636    Uiso  ? H
   H4         1.0     0.950485     0.099531     0.232007    Uiso  ? H
   H5         1.0     0.849531     0.200485     0.017993    Uiso  ? H
   H6         1.0     0.935364     0.161347     0.319026    Uiso  ? H
   H7         1.0     0.949483     0.026432     0.144768    Uiso  ? H
   H8         1.0     0.776432     0.199483     0.105232    Uiso  ? H
   H9         1.0     0.894768     0.276432     0.300517    Uiso  ? H
   H10        1.0     0.049515     0.599531     0.267993    Uiso  ? H
   H11        1.0     0.064636     0.661347     0.180974    Uiso  ? H
   H12        1.0     0.069026     0.411347     0.314636    Uiso  ? H
   H13        1.0     0.526432     0.355232     0.050517    Uiso  ? H
   H14        1.0     0.699483     0.394768     0.223568    Uiso  ? H
   H15        1.0     0.982007     0.349531     0.299515    Uiso  ? H
   H16        1.0     0.700485     0.482007     0.150469    Uiso  ? H
   H17        1.0     0.685364     0.569026     0.088653    Uiso  ? H
   H18        1.0     0.232007     0.950485     0.099531    Uiso  ? H
   H19        1.0     0.017993     0.849531     0.200485    Uiso  ? H
   H20        1.0     0.319026     0.935364     0.161347    Uiso  ? H
   H21        1.0     0.105232     0.776432     0.199483    Uiso  ? H
   H22        1.0     0.144768     0.949483     0.026432    Uiso  ? H
   H23        1.0     0.300517     0.894768     0.276432    Uiso  ? H
   H24        1.0     0.930974     0.911347     0.185364    Uiso  ? H
   H25        1.0     0.267993     0.049515     0.599531    Uiso  ? H
   H26        1.0     0.180974     0.064636     0.661347    Uiso  ? H
   H27        1.0     0.314636     0.069026     0.411347    Uiso  ? H
   H28        1.0     0.355232     0.050517     0.526432    Uiso  ? H
   H29        1.0     0.050517     0.526432     0.355232    Uiso  ? H
   H30        1.0     0.767993     0.450485     0.400469    Uiso  ? H
   H31        1.0     0.799515     0.517993     0.650469    Uiso  ? H
   H32        1.0     0.680974     0.435364     0.338653    Uiso  ? H
   H33        1.0     0.814636     0.430974     0.588653    Uiso  ? H
   H34        1.0     0.855232     0.449483     0.473568    Uiso  ? H
   H35        1.0     0.973568     0.644768     0.550517    Uiso  ? H
   H36        1.0     0.223568     0.699483     0.394768    Uiso  ? H
   H37        1.0     0.150469     0.700485     0.482007    Uiso  ? H
   H38        1.0     0.299515     0.982007     0.349531    Uiso  ? H
   H39        1.0     0.088653     0.685364     0.569026    Uiso  ? H
   H40        1.0     0.650469     0.799515     0.517993    Uiso  ? H
   H41        1.0     0.400469     0.767993     0.450485    Uiso  ? H
   H42        1.0     0.588653     0.814636     0.430974    Uiso  ? H
   H43        1.0     0.338653     0.680974     0.435364    Uiso  ? H
   H44        1.0     0.473568     0.855232     0.449483    Uiso  ? H
   H45        1.0     0.550517     0.973568     0.644768    Uiso  ? H
   H46        1.0     0.900469     0.732007     0.549515    Uiso  ? H
   H47        1.0     0.838653     0.819026     0.564636    Uiso  ? H
   H48        1.0     0.723568     0.800517     0.605232    Uiso  ? H
   H49        1.0     0.099531     0.232007     0.950485    Uiso  ? H
   H50        1.0     0.200485     0.017993     0.849531    Uiso  ? H
   H51        1.0     0.161347     0.319026     0.935364    Uiso  ? H
   H52        1.0     0.026432     0.144768     0.949483    Uiso  ? H
   H53        1.0     0.199483     0.105232     0.776432    Uiso  ? H
   H54        1.0     0.276432     0.300517     0.894768    Uiso  ? H
   H55        1.0     0.394768     0.223568     0.699483    Uiso  ? H
   H56        1.0     0.349531     0.299515     0.982007    Uiso  ? H
   H57        1.0     0.482007     0.150469     0.700485    Uiso  ? H
   H58        1.0     0.569026     0.088653     0.685364    Uiso  ? H
   H59        1.0     0.911347     0.185364     0.930974    Uiso  ? H
   H60        1.0     0.450485     0.400469     0.767993    Uiso  ? H
   H61        1.0     0.517993     0.650469     0.799515    Uiso  ? H
   H62        1.0     0.435364     0.338653     0.680974    Uiso  ? H
   H63        1.0     0.430974     0.588653     0.814636    Uiso  ? H
   H64        1.0     0.449483     0.473568     0.855232    Uiso  ? H
   H65        1.0     0.644768     0.550517     0.973568    Uiso  ? H
   H66        1.0     0.732007     0.549515     0.900469    Uiso  ? H
   H67        1.0     0.819026     0.564636     0.838653    Uiso  ? H
   H68        1.0     0.800517     0.605232     0.723568    Uiso  ? H
   H69        1.0     0.185364     0.930974     0.911347    Uiso  ? H
   H70        1.0     0.549515     0.900469     0.732007    Uiso  ? H
   H71        1.0     0.564636     0.838653     0.819026    Uiso  ? H
   H72        1.0     0.605232     0.723568     0.800517    Uiso  ? H
