
#======================================================================
# CRYSTAL DATA
#----------------------------------------------------------------------
data_VESTA_phase_1

_chemical_name_common                  'POSCAR file written by OVITO Basic 3.8'
_cell_length_a                         23.464600
_cell_length_b                         23.464600
_cell_length_c                         23.464600
_cell_angle_alpha                      90.000000
_cell_angle_beta                       90.000000
_cell_angle_gamma                      90.000000
_cell_volume                           12919.313708
_space_group_name_H-M_alt              'P 1'
_space_group_IT_number                 1

loop_
_space_group_symop_operation_xyz
   'x, y, z'

loop_
   _atom_site_label
   _atom_site_occupancy
   _atom_site_fract_x
   _atom_site_fract_y
   _atom_site_fract_z
   _atom_site_adp_type
   _atom_site_U_iso_or_equiv
   _atom_site_type_symbol
   C1         1.0     0.617367     0.259610     0.100379    Uiso  ? C
   C2         1.0     0.651628     0.211382     0.108084    Uiso  ? C
   C3         1.0     0.628568     0.223822     0.203717    Uiso  ? C
   C4         1.0     0.621603     0.282855     0.199189    Uiso  ? C
   C5         1.0     0.642337     0.324563     0.237628    Uiso  ? C
   C6         1.0     0.604040     0.298608     0.143699    Uiso  ? C
   C7         1.0     0.665760     0.195254     0.163691    Uiso  ? C
   C8         1.0     0.668284     0.305982     0.288867    Uiso  ? C
   C9         1.0     0.867365     0.149621     0.009613    Uiso  ? C
   C10        1.0     0.899623     0.117366     0.240389    Uiso  ? C
   C11        1.0     0.891914     0.151628     0.288617    Uiso  ? C
   C12        1.0     0.890067     0.031874     0.130665    Uiso  ? C
   C13        1.0     0.781877     0.140065     0.119335    Uiso  ? C
   C14        1.0     0.831106     0.111189     0.103634    Uiso  ? C
   C15        1.0     0.861188     0.081108     0.146367    Uiso  ? C
   C16        1.0     0.704930     0.175248     0.252857    Uiso  ? C
   C17        1.0     0.747141     0.204934     0.324755    Uiso  ? C
   C18        1.0     0.675247     0.247142     0.295070    Uiso  ? C
   C19        1.0     0.796286     0.128566     0.276178    Uiso  ? C
   C20        1.0     0.711136     0.168282     0.194020    Uiso  ? C
   C21        1.0     0.871603     0.050814     0.032848    Uiso  ? C
   C22        1.0     0.800813     0.121602     0.217143    Uiso  ? C
   C23        1.0     0.892338     0.012371     0.074566    Uiso  ? C
   C24        1.0     0.762370     0.142338     0.175436    Uiso  ? C
   C25        1.0     0.836307     0.165762     0.304747    Uiso  ? C
   C26        1.0     0.854042     0.106300     0.048606    Uiso  ? C
   C27        1.0     0.856298     0.104042     0.201395    Uiso  ? C
   C28        1.0     0.805982     0.211133     0.331716    Uiso  ? C
   C29        1.0     0.100384     0.617367     0.259611    Uiso  ? C
   C30        1.0     0.108094     0.651638     0.211373    Uiso  ? C
   C31        1.0     0.203730     0.628577     0.223821    Uiso  ? C
   C32        1.0     0.199170     0.621600     0.282838    Uiso  ? C
   C33        1.0     0.237644     0.642344     0.324566    Uiso  ? C
   C34        1.0     0.143706     0.604040     0.298615    Uiso  ? C
   C35        1.0     0.163666     0.665725     0.195281    Uiso  ? C
   C36        1.0     0.649624     0.490388     0.132635    Uiso  ? C
   C37        1.0     0.641902     0.538626     0.098364    Uiso  ? C
   C38        1.0     0.401640     0.358092     0.038631    Uiso  ? C
   C39        1.0     0.531880     0.369330     0.109935    Uiso  ? C
   C40        1.0     0.640068     0.380665     0.218127    Uiso  ? C
   C41        1.0     0.611190     0.396369     0.168892    Uiso  ? C
   C42        1.0     0.581105     0.353634     0.138810    Uiso  ? C
   C43        1.0     0.497164     0.574753     0.045071    Uiso  ? C
   C44        1.0     0.454934     0.502832     0.074761    Uiso  ? C
   C45        1.0     0.546286     0.526181     0.121425    Uiso  ? C
   C46        1.0     0.378577     0.453729     0.026170    Uiso  ? C
   C47        1.0     0.461155     0.444053     0.081726    Uiso  ? C
   C48        1.0     0.555944     0.581737     0.038829    Uiso  ? C
   C49        1.0     0.550827     0.467159     0.128400    Uiso  ? C
   C50        1.0     0.512354     0.425430     0.107654    Uiso  ? C
   C51        1.0     0.586324     0.554716     0.084277    Uiso  ? C
   C52        1.0     0.415735     0.413682     0.054724    Uiso  ? C
   C53        1.0     0.606291     0.451388     0.145959    Uiso  ? C
   C54        1.0     0.425223     0.545038     0.002839    Uiso  ? C
   C55        1.0     0.288858     0.668281     0.305958    Uiso  ? C
   C56        1.0     0.240392     0.899644     0.117365    Uiso  ? C
   C57        1.0     0.009615     0.867364     0.149624    Uiso  ? C
   C58        1.0     0.288614     0.891892     0.151626    Uiso  ? C
   C59        1.0     0.119347     0.781886     0.140059    Uiso  ? C
   C60        1.0     0.130654     0.890070     0.031867    Uiso  ? C
   C61        1.0     0.146389     0.861185     0.081115    Uiso  ? C
   C62        1.0     0.103617     0.831102     0.111193    Uiso  ? C
   C63        1.0     0.295070     0.675241     0.247165    Uiso  ? C
   C64        1.0     0.252838     0.704908     0.175262    Uiso  ? C
   C65        1.0     0.324788     0.747151     0.204981    Uiso  ? C
   C66        1.0     0.276202     0.796348     0.128559    Uiso  ? C
   C67        1.0     0.194047     0.711178     0.168258    Uiso  ? C
   C68        1.0     0.217115     0.800813     0.121597    Uiso  ? C
   C69        1.0     0.032867     0.871602     0.050810    Uiso  ? C
   C70        1.0     0.175430     0.762353     0.142347    Uiso  ? C
   C71        1.0     0.074568     0.892338     0.012372    Uiso  ? C
   C72        1.0     0.304720     0.836296     0.165728    Uiso  ? C
   C73        1.0     0.201397     0.856285     0.104042    Uiso  ? C
   C74        1.0     0.048604     0.854041     0.106301    Uiso  ? C
   C75        1.0     0.331721     0.805945     0.211145    Uiso  ? C
   C76        1.0     0.359929     0.880671     0.281870    Uiso  ? C
   C77        1.0     0.388814     0.896358     0.331110    Uiso  ? C
   C78        1.0     0.371421     0.723841     0.296252    Uiso  ? C
   C79        1.0     0.378395     0.782808     0.300822    Uiso  ? C
   C80        1.0     0.357658     0.824576     0.262362    Uiso  ? C
   C81        1.0     0.961382     0.901629     0.141914    Uiso  ? C
   C82        1.0     0.973814     0.878567     0.046294    Uiso  ? C
   C83        1.0     0.918284     0.961132     0.055980    Uiso  ? C
   C84        1.0     0.945255     0.915759     0.086305    Uiso  ? C
   C85        1.0     0.259614     0.100379     0.617365    Uiso  ? C
   C86        1.0     0.211378     0.108086     0.651632    Uiso  ? C
   C87        1.0     0.223826     0.203725     0.628571    Uiso  ? C
   C88        1.0     0.282845     0.199184     0.621603    Uiso  ? C
   C89        1.0     0.324566     0.237633     0.642340    Uiso  ? C
   C90        1.0     0.298607     0.143701     0.604041    Uiso  ? C
   C91        1.0     0.195258     0.163688     0.665755    Uiso  ? C
   C92        1.0     0.490390     0.132634     0.649627    Uiso  ? C
   C93        1.0     0.358088     0.038620     0.401631    Uiso  ? C
   C94        1.0     0.538618     0.098371     0.641910    Uiso  ? C
   C95        1.0     0.380667     0.218127     0.640068    Uiso  ? C
   C96        1.0     0.369335     0.109935     0.531878    Uiso  ? C
   C97        1.0     0.353634     0.138810     0.581105    Uiso  ? C
   C98        1.0     0.396369     0.168890     0.611187    Uiso  ? C
   C99        1.0     0.574759     0.045061     0.497147    Uiso  ? C
   C100       1.0     0.502849     0.074753     0.454929    Uiso  ? C
   C101       1.0     0.453720     0.026175     0.378571    Uiso  ? C
   C102       1.0     0.526181     0.121433     0.546294    Uiso  ? C
   C103       1.0     0.581720     0.038859     0.555970    Uiso  ? C
   C104       1.0     0.444031     0.081723     0.461146    Uiso  ? C
   C105       1.0     0.467143     0.128399     0.550815    Uiso  ? C
   C106       1.0     0.425434     0.107659     0.512365    Uiso  ? C
   C107       1.0     0.413686     0.054738     0.415749    Uiso  ? C
   C108       1.0     0.554738     0.084249     0.586307    Uiso  ? C
   C109       1.0     0.451393     0.145959     0.606294    Uiso  ? C
   C110       1.0     0.545064     0.002850     0.425242    Uiso  ? C
   C111       1.0     0.880664     0.281872     0.359932    Uiso  ? C
   C112       1.0     0.896370     0.331109     0.388813    Uiso  ? C
   C113       1.0     0.723824     0.296281     0.371433    Uiso  ? C
   C114       1.0     0.782853     0.300812     0.378397    Uiso  ? C
   C115       1.0     0.824565     0.262372     0.357663    Uiso  ? C
   C116       1.0     0.132635     0.649625     0.490388    Uiso  ? C
   C117       1.0     0.098368     0.641909     0.538621    Uiso  ? C
   C118       1.0     0.038619     0.401630     0.358090    Uiso  ? C
   C119       1.0     0.109933     0.531875     0.369332    Uiso  ? C
   C120       1.0     0.218122     0.640066     0.380675    Uiso  ? C
   C121       1.0     0.168894     0.611190     0.396363    Uiso  ? C
   C122       1.0     0.138810     0.581107     0.353635    Uiso  ? C
   C123       1.0     0.074761     0.454939     0.502849    Uiso  ? C
   C124       1.0     0.045065     0.497150     0.574757    Uiso  ? C
   C125       1.0     0.121431     0.546283     0.526174    Uiso  ? C
   C126       1.0     0.026181     0.378568     0.453707    Uiso  ? C
   C127       1.0     0.038856     0.555968     0.581721    Uiso  ? C
   C128       1.0     0.081720     0.461142     0.444034    Uiso  ? C
   C129       1.0     0.128396     0.550814     0.467156    Uiso  ? C
   C130       1.0     0.107660     0.512367     0.425434    Uiso  ? C
   C131       1.0     0.084251     0.586312     0.554737    Uiso  ? C
   C132       1.0     0.054737     0.415749     0.413692    Uiso  ? C
   C133       1.0     0.145960     0.606298     0.451390    Uiso  ? C
   C134       1.0     0.002849     0.425246     0.545068    Uiso  ? C
   C135       1.0     0.695252     0.336309     0.334238    Uiso  ? C
   C136       1.0     0.759613     0.399621     0.382634    Uiso  ? C
   C137       1.0     0.850379     0.509616     0.632637    Uiso  ? C
   C138       1.0     0.990389     0.367366     0.350373    Uiso  ? C
   C139       1.0     0.711381     0.391916     0.348371    Uiso  ? C
   C140       1.0     0.858089     0.461377     0.598367    Uiso  ? C
   C141       1.0     0.968136     0.630658     0.609928    Uiso  ? C
   C142       1.0     0.869335     0.390065     0.468121    Uiso  ? C
   C143       1.0     0.853632     0.361189     0.418895    Uiso  ? C
   C144       1.0     0.918884     0.646390     0.638813    Uiso  ? C
   C145       1.0     0.953714     0.473815     0.621428    Uiso  ? C
   C146       1.0     0.944034     0.418277     0.538853    Uiso  ? C
   C147       1.0     0.949188     0.532856     0.628398    Uiso  ? C
   C148       1.0     0.967145     0.371601     0.449182    Uiso  ? C
   C149       1.0     0.987632     0.574569     0.607661    Uiso  ? C
   C150       1.0     0.925434     0.392342     0.487638    Uiso  ? C
   C151       1.0     0.913687     0.445266     0.584255    Uiso  ? C
   C152       1.0     0.798606     0.356301     0.395959    Uiso  ? C
   C153       1.0     0.893698     0.548608     0.645960    Uiso  ? C
   C154       1.0     0.951394     0.354042     0.393706    Uiso  ? C
   C155       1.0     0.334251     0.695265     0.336316    Uiso  ? C
   C156       1.0     0.350378     0.990390     0.367367    Uiso  ? C
   C157       1.0     0.382642     0.759622     0.399622    Uiso  ? C
   C158       1.0     0.632634     0.850377     0.509611    Uiso  ? C
   C159       1.0     0.348359     0.711367     0.391913    Uiso  ? C
   C160       1.0     0.598369     0.858087     0.461380    Uiso  ? C
   C161       1.0     0.468121     0.869328     0.390065    Uiso  ? C
   C162       1.0     0.609933     0.968126     0.630667    Uiso  ? C
   C163       1.0     0.418899     0.853647     0.361193    Uiso  ? C
   C164       1.0     0.638805     0.918898     0.646359    Uiso  ? C
   C165       1.0     0.621430     0.953717     0.473823    Uiso  ? C
   C166       1.0     0.538861     0.944030     0.418282    Uiso  ? C
   C167       1.0     0.449184     0.967155     0.371603    Uiso  ? C
   C168       1.0     0.628396     0.949189     0.532846    Uiso  ? C
   C169       1.0     0.487633     0.925435     0.392339    Uiso  ? C
   C170       1.0     0.607663     0.987628     0.574569    Uiso  ? C
   C171       1.0     0.584247     0.913691     0.445260    Uiso  ? C
   C172       1.0     0.393703     0.951391     0.354041    Uiso  ? C
   C173       1.0     0.395958     0.798611     0.356300    Uiso  ? C
   C174       1.0     0.645959     0.893701     0.548609    Uiso  ? C
   C175       1.0     0.882636     0.740393     0.600351    Uiso  ? C
   C176       1.0     0.848367     0.788622     0.608112    Uiso  ? C
   C177       1.0     0.718125     0.859933     0.619330    Uiso  ? C
   C178       1.0     0.668895     0.888810     0.603640    Uiso  ? C
   C179       1.0     0.834307     0.804692     0.663696    Uiso  ? C
   C180       1.0     0.895959     0.701388     0.643727    Uiso  ? C
   C181       1.0     0.305971     0.288863     0.668283    Uiso  ? C
   C182       1.0     0.149621     0.009612     0.867366    Uiso  ? C
   C183       1.0     0.117367     0.240390     0.899624    Uiso  ? C
   C184       1.0     0.151629     0.288618     0.891911    Uiso  ? C
   C185       1.0     0.031875     0.130665     0.890067    Uiso  ? C
   C186       1.0     0.140065     0.119334     0.781877    Uiso  ? C
   C187       1.0     0.111189     0.103632     0.831106    Uiso  ? C
   C188       1.0     0.081108     0.146369     0.861188    Uiso  ? C
   C189       1.0     0.204935     0.324756     0.747147    Uiso  ? C
   C190       1.0     0.247146     0.295058     0.675238    Uiso  ? C
   C191       1.0     0.175248     0.252851     0.704927    Uiso  ? C
   C192       1.0     0.128567     0.276180     0.796291    Uiso  ? C
   C193       1.0     0.168280     0.194026     0.711141    Uiso  ? C
   C194       1.0     0.050814     0.032854     0.871602    Uiso  ? C
   C195       1.0     0.121602     0.217145     0.800815    Uiso  ? C
   C196       1.0     0.012370     0.074564     0.892338    Uiso  ? C
   C197       1.0     0.142340     0.175435     0.762366    Uiso  ? C
   C198       1.0     0.165751     0.304739     0.836310    Uiso  ? C
   C199       1.0     0.106299     0.048607     0.854041    Uiso  ? C
   C200       1.0     0.104041     0.201393     0.856296    Uiso  ? C
   C201       1.0     0.211143     0.331722     0.805970    Uiso  ? C
   C202       1.0     0.901630     0.141916     0.961381    Uiso  ? C
   C203       1.0     0.878569     0.046277     0.973827    Uiso  ? C
   C204       1.0     0.961134     0.055980     0.918284    Uiso  ? C
   C205       1.0     0.915762     0.086309     0.945253    Uiso  ? C
   C206       1.0     0.281876     0.359934     0.880666    Uiso  ? C
   C207       1.0     0.331104     0.388808     0.896362    Uiso  ? C
   C208       1.0     0.296291     0.371433     0.723821    Uiso  ? C
   C209       1.0     0.300812     0.378397     0.782853    Uiso  ? C
   C210       1.0     0.262369     0.357661     0.824567    Uiso  ? C
   C211       1.0     0.336307     0.334247     0.695260    Uiso  ? C
   C212       1.0     0.367360     0.350375     0.990381    Uiso  ? C
   C213       1.0     0.509608     0.632635     0.850364    Uiso  ? C
   C214       1.0     0.399626     0.382634     0.759611    Uiso  ? C
   C215       1.0     0.461380     0.598369     0.858100    Uiso  ? C
   C216       1.0     0.391911     0.348371     0.711382    Uiso  ? C
   C217       1.0     0.390068     0.468126     0.869330    Uiso  ? C
   C218       1.0     0.630664     0.609937     0.968119    Uiso  ? C
   C219       1.0     0.646370     0.638805     0.918897    Uiso  ? C
   C220       1.0     0.361187     0.418891     0.853636    Uiso  ? C
   C221       1.0     0.473808     0.621431     0.953682    Uiso  ? C
   C222       1.0     0.418275     0.538847     0.944060    Uiso  ? C
   C223       1.0     0.371602     0.449175     0.967177    Uiso  ? C
   C224       1.0     0.532858     0.628399     0.949185    Uiso  ? C
   C225       1.0     0.392345     0.487644     0.925425    Uiso  ? C
   C226       1.0     0.574571     0.607654     0.987645    Uiso  ? C
   C227       1.0     0.445282     0.584275     0.913694    Uiso  ? C
   C228       1.0     0.354042     0.393705     0.951389    Uiso  ? C
   C229       1.0     0.548611     0.645960     0.893710    Uiso  ? C
   C230       1.0     0.356298     0.395959     0.798607    Uiso  ? C
   C231       1.0     0.740383     0.600379     0.882638    Uiso  ? C
   C232       1.0     0.788639     0.608104     0.848352    Uiso  ? C
   C233       1.0     0.859943     0.619343     0.718109    Uiso  ? C
   C234       1.0     0.888805     0.603620     0.668901    Uiso  ? C
   C235       1.0     0.804688     0.663655     0.834313    Uiso  ? C
   C236       1.0     0.701379     0.643710     0.895961    Uiso  ? C
   C237       1.0     0.141912     0.961381     0.901630    Uiso  ? C
   C238       1.0     0.046282     0.973823     0.878568    Uiso  ? C
   C239       1.0     0.055980     0.918280     0.961140    Uiso  ? C
   C240       1.0     0.086312     0.945256     0.915757    Uiso  ? C
   C241       1.0     0.600365     0.882645     0.740376    Uiso  ? C
   C242       1.0     0.608108     0.848351     0.788640    Uiso  ? C
   C243       1.0     0.619327     0.718125     0.859931    Uiso  ? C
   C244       1.0     0.603629     0.668890     0.888812    Uiso  ? C
   C245       1.0     0.663676     0.834292     0.804701    Uiso  ? C
   C246       1.0     0.643711     0.895958     0.701384    Uiso  ? C
   C247       1.0     0.925243     0.954937     0.997140    Uiso  ? C
   C248       1.0     0.954929     0.997145     0.925247    Uiso  ? C
   C249       1.0     0.997142     0.925251     0.954926    Uiso  ? C
   C250       1.0     0.795014     0.824797     0.752820    Uiso  ? C
   C251       1.0     0.752813     0.795049     0.824777    Uiso  ? C
   C252       1.0     0.824744     0.752806     0.795091    Uiso  ? C
   C253       1.0     0.776184     0.703733     0.871410    Uiso  ? C
   C254       1.0     0.871432     0.776210     0.703645    Uiso  ? C
   C255       1.0     0.703726     0.871418     0.776166    Uiso  ? C
   C256       1.0     0.694086     0.788828     0.831734    Uiso  ? C
   C257       1.0     0.831757     0.694092     0.788791    Uiso  ? C
   C258       1.0     0.788827     0.831736     0.694096    Uiso  ? C
   C259       1.0     0.717184     0.699158     0.878402    Uiso  ? C
   C260       1.0     0.878406     0.717129     0.699172    Uiso  ? C
   C261       1.0     0.699170     0.878397     0.717201    Uiso  ? C
   C262       1.0     0.675421     0.737661     0.857647    Uiso  ? C
   C263       1.0     0.857645     0.675420     0.737664    Uiso  ? C
   C264       1.0     0.737651     0.857652     0.675413    Uiso  ? C
   N1         1.0     0.661411     0.214835     0.248623    Uiso  ? N
   N2         1.0     0.751376     0.161411     0.285164    Uiso  ? N
   N3         1.0     0.248611     0.661416     0.214818    Uiso  ? N
   N4         1.0     0.501383     0.535171     0.088586    Uiso  ? N
   N5         1.0     0.411406     0.498617     0.035155    Uiso  ? N
   N6         1.0     0.285155     0.751361     0.161416    Uiso  ? N
   N7         1.0     0.338598     0.714852     0.251387    Uiso  ? N
   N8         1.0     0.964837     0.911413     0.001373    Uiso  ? N
   N9         1.0     0.214837     0.248620     0.661410    Uiso  ? N
   N10        1.0     0.535163     0.088588     0.501374    Uiso  ? N
   N11        1.0     0.498620     0.035165     0.411411    Uiso  ? N
   N12        1.0     0.714836     0.251378     0.338589    Uiso  ? N
   N13        1.0     0.035161     0.411411     0.498625    Uiso  ? N
   N14        1.0     0.088590     0.501379     0.535162    Uiso  ? N
   N15        1.0     0.998622     0.464835     0.588587    Uiso  ? N
   N16        1.0     0.588591     0.998623     0.464840    Uiso  ? N
   N17        1.0     0.161412     0.285166     0.751376    Uiso  ? N
   N18        1.0     0.911409     0.001379     0.964838    Uiso  ? N
   N19        1.0     0.251375     0.338589     0.714840    Uiso  ? N
   N20        1.0     0.464844     0.588588     0.998631    Uiso  ? N
   N21        1.0     0.001379     0.964832     0.911412    Uiso  ? N
   N22        1.0     0.838587     0.785155     0.748639    Uiso  ? N
   N23        1.0     0.748613     0.838599     0.785144    Uiso  ? N
   N24        1.0     0.785178     0.748607     0.838586    Uiso  ? N
   H1         1.0     0.602902     0.269370     0.057273    Uiso  ? H
   H2         1.0     0.416206     0.320788     0.062076    Uiso  ? H
   H3         1.0     0.666207     0.187923     0.070787    Uiso  ? H
   H4         1.0     0.942726     0.102902     0.230630    Uiso  ? H
   H5         1.0     0.852902     0.192726     0.019370    Uiso  ? H
   H6         1.0     0.929213     0.166207     0.312077    Uiso  ? H
   H7         1.0     0.911033     0.007737     0.164122    Uiso  ? H
   H8         1.0     0.757737     0.161033     0.085877    Uiso  ? H
   H9         1.0     0.057271     0.602901     0.269371    Uiso  ? H
   H10        1.0     0.070787     0.666206     0.187923    Uiso  ? H
   H11        1.0     0.062077     0.416207     0.320786    Uiso  ? H
   H12        1.0     0.507737     0.335878     0.088967    Uiso  ? H
   H13        1.0     0.661033     0.414122     0.242262    Uiso  ? H
   H14        1.0     0.980630     0.352902     0.307276    Uiso  ? H
   H15        1.0     0.692725     0.480630     0.147098    Uiso  ? H
   H16        1.0     0.679215     0.562078     0.083793    Uiso  ? H
   H17        1.0     0.230631     0.942718     0.102904    Uiso  ? H
   H18        1.0     0.019370     0.852902     0.192725    Uiso  ? H
   H19        1.0     0.312081     0.929221     0.166209    Uiso  ? H
   H20        1.0     0.085872     0.757734     0.161036    Uiso  ? H
   H21        1.0     0.164124     0.911033     0.007737    Uiso  ? H
   H22        1.0     0.338968     0.914119     0.257738    Uiso  ? H
   H23        1.0     0.937923     0.916207     0.179213    Uiso  ? H
   H24        1.0     0.269370     0.057274     0.602902    Uiso  ? H
   H25        1.0     0.187923     0.070788     0.666206    Uiso  ? H
   H26        1.0     0.320787     0.062077     0.416207    Uiso  ? H
   H27        1.0     0.335877     0.088966     0.507737    Uiso  ? H
   H28        1.0     0.414122     0.242262     0.661033    Uiso  ? H
   H29        1.0     0.914122     0.257737     0.338967    Uiso  ? H
   H30        1.0     0.088967     0.507737     0.335878    Uiso  ? H
   H31        1.0     0.242262     0.661032     0.414120    Uiso  ? H
   H32        1.0     0.769370     0.442726     0.397098    Uiso  ? H
   H33        1.0     0.807274     0.519370     0.647098    Uiso  ? H
   H34        1.0     0.687923     0.429213     0.333793    Uiso  ? H
   H35        1.0     0.820787     0.437923     0.583793    Uiso  ? H
   H36        1.0     0.835877     0.411034     0.492263    Uiso  ? H
   H37        1.0     0.992262     0.664122     0.588968    Uiso  ? H
   H38        1.0     0.147098     0.692725     0.480630    Uiso  ? H
   H39        1.0     0.307274     0.980630     0.352902    Uiso  ? H
   H40        1.0     0.083793     0.679214     0.562077    Uiso  ? H
   H41        1.0     0.647098     0.807275     0.519370    Uiso  ? H
   H42        1.0     0.397097     0.769369     0.442724    Uiso  ? H
   H43        1.0     0.583793     0.820787     0.437923    Uiso  ? H
   H44        1.0     0.333794     0.687924     0.429211    Uiso  ? H
   H45        1.0     0.492263     0.835879     0.411033    Uiso  ? H
   H46        1.0     0.588967     0.992262     0.664121    Uiso  ? H
   H47        1.0     0.897095     0.730631     0.557284    Uiso  ? H
   H48        1.0     0.833792     0.812080     0.570779    Uiso  ? H
   H49        1.0     0.742262     0.838968     0.585880    Uiso  ? H
   H50        1.0     0.102902     0.230630     0.942726    Uiso  ? H
   H51        1.0     0.192726     0.019370     0.852902    Uiso  ? H
   H52        1.0     0.166207     0.312077     0.929214    Uiso  ? H
   H53        1.0     0.007737     0.164122     0.911033    Uiso  ? H
   H54        1.0     0.161033     0.085877     0.757737    Uiso  ? H
   H55        1.0     0.352903     0.307277     0.980631    Uiso  ? H
   H56        1.0     0.480630     0.147098     0.692725    Uiso  ? H
   H57        1.0     0.562077     0.083793     0.679214    Uiso  ? H
   H58        1.0     0.916206     0.179212     0.937923    Uiso  ? H
   H59        1.0     0.257737     0.338967     0.914122    Uiso  ? H
   H60        1.0     0.442725     0.397098     0.769370    Uiso  ? H
   H61        1.0     0.519370     0.647097     0.807279    Uiso  ? H
   H62        1.0     0.429214     0.333793     0.687923    Uiso  ? H
   H63        1.0     0.437921     0.583793     0.820783    Uiso  ? H
   H64        1.0     0.411032     0.492262     0.835880    Uiso  ? H
   H65        1.0     0.664124     0.588966     0.992264    Uiso  ? H
   H66        1.0     0.730629     0.557275     0.897098    Uiso  ? H
   H67        1.0     0.812078     0.570786     0.833794    Uiso  ? H
   H68        1.0     0.838965     0.585874     0.742266    Uiso  ? H
   H69        1.0     0.179213     0.937923     0.916207    Uiso  ? H
   H70        1.0     0.557282     0.897096     0.730631    Uiso  ? H
   H71        1.0     0.570785     0.833793     0.812078    Uiso  ? H
   H72        1.0     0.585881     0.742262     0.838968    Uiso  ? H
