
#======================================================================
# CRYSTAL DATA
#----------------------------------------------------------------------
data_VESTA_phase_1

_chemical_name_common                  'POSCAR file written by OVITO Basic 3.8'
_cell_length_a                         23.935101
_cell_length_b                         23.935101
_cell_length_c                         23.935101
_cell_angle_alpha                      90.000000
_cell_angle_beta                       90.000000
_cell_angle_gamma                      90.000000
_cell_volume                           13712.156746
_space_group_name_H-M_alt              'P 1'
_space_group_IT_number                 1

loop_
_space_group_symop_operation_xyz
   'x, y, z'

loop_
   _atom_site_label
   _atom_site_occupancy
   _atom_site_fract_x
   _atom_site_fract_y
   _atom_site_fract_z
   _atom_site_adp_type
   _atom_site_U_iso_or_equiv
   _atom_site_type_symbol
   C1         1.0     0.632268     0.265087     0.097563    Uiso  ? C
   C2         1.0     0.665800     0.219570     0.105619    Uiso  ? C
   C3         1.0     0.643938     0.233433     0.201936    Uiso  ? C
   C4         1.0     0.661549     0.214436     0.255824    Uiso  ? C
   C5         1.0     0.647967     0.329275     0.232110    Uiso  ? C
   C6         1.0     0.612469     0.301102     0.139743    Uiso  ? C
   C7         1.0     0.668284     0.311327     0.284568    Uiso  ? C
   C8         1.0     0.671412     0.252948     0.297695    Uiso  ? C
   C9         1.0     0.882268     0.152437     0.015087    Uiso  ? C
   C10        1.0     0.902437     0.132268     0.234913    Uiso  ? C
   C11        1.0     0.894381     0.165800     0.280430    Uiso  ? C
   C12        1.0     0.896645     0.042320     0.132630    Uiso  ? C
   C13        1.0     0.792320     0.146645     0.117370    Uiso  ? C
   C14        1.0     0.835859     0.112424     0.103030    Uiso  ? C
   C15        1.0     0.862424     0.085859     0.146970    Uiso  ? C
   C16        1.0     0.702305     0.171412     0.247052    Uiso  ? C
   C17        1.0     0.798064     0.143938     0.266567    Uiso  ? C
   C18        1.0     0.715432     0.168284     0.188673    Uiso  ? C
   C19        1.0     0.744176     0.161549     0.285564    Uiso  ? C
   C20        1.0     0.897967     0.017890     0.079275    Uiso  ? C
   C21        1.0     0.767890     0.147967     0.170725    Uiso  ? C
   C22        1.0     0.676777     0.204515     0.159468    Uiso  ? C
   C23        1.0     0.840532     0.176777     0.295485    Uiso  ? C
   C24        1.0     0.862469     0.110257     0.051102    Uiso  ? C
   C25        1.0     0.860257     0.112469     0.198898    Uiso  ? C
   C26        1.0     0.752948     0.202305     0.328588    Uiso  ? C
   C27        1.0     0.811327     0.215432     0.331716    Uiso  ? C
   C28        1.0     0.097563     0.632268     0.265087    Uiso  ? C
   C29        1.0     0.105619     0.665800     0.219570    Uiso  ? C
   C30        1.0     0.201936     0.643938     0.233433    Uiso  ? C
   C31        1.0     0.255824     0.661549     0.214436    Uiso  ? C
   C32        1.0     0.232110     0.647967     0.329275    Uiso  ? C
   C33        1.0     0.139743     0.612469     0.301102    Uiso  ? C
   C34        1.0     0.652437     0.484913     0.117732    Uiso  ? C
   C35        1.0     0.644381     0.530430     0.084200    Uiso  ? C
   C36        1.0     0.415800     0.355619     0.030430    Uiso  ? C
   C37        1.0     0.542320     0.367370     0.103355    Uiso  ? C
   C38        1.0     0.646645     0.382630     0.207680    Uiso  ? C
   C39        1.0     0.612424     0.396970     0.164141    Uiso  ? C
   C40        1.0     0.585859     0.353030     0.137576    Uiso  ? C
   C41        1.0     0.502948     0.578588     0.047695    Uiso  ? C
   C42        1.0     0.452305     0.497052     0.078588    Uiso  ? C
   C43        1.0     0.548064     0.516567     0.106062    Uiso  ? C
   C44        1.0     0.393938     0.451936     0.016567    Uiso  ? C
   C45        1.0     0.465432     0.438673     0.081716    Uiso  ? C
   C46        1.0     0.561327     0.581716     0.034568    Uiso  ? C
   C47        1.0     0.464436     0.588451     0.005824    Uiso  ? C
   C48        1.0     0.494176     0.535564     0.088451    Uiso  ? C
   C49        1.0     0.411549     0.505824     0.035564    Uiso  ? C
   C50        1.0     0.517890     0.420725     0.102033    Uiso  ? C
   C51        1.0     0.590532     0.545485     0.073223    Uiso  ? C
   C52        1.0     0.426777     0.409468     0.045485    Uiso  ? C
   C53        1.0     0.610257     0.448898     0.137531    Uiso  ? C
   C54        1.0     0.704515     0.340532     0.323223    Uiso  ? C
   C55        1.0     0.284568     0.668284     0.311327    Uiso  ? C
   C56        1.0     0.297695     0.671412     0.252948    Uiso  ? C
   C57        1.0     0.234913     0.902437     0.132268    Uiso  ? C
   C58        1.0     0.015087     0.882268     0.152437    Uiso  ? C
   C59        1.0     0.280430     0.894381     0.165800    Uiso  ? C
   C60        1.0     0.117370     0.792320     0.146645    Uiso  ? C
   C61        1.0     0.132630     0.896645     0.042320    Uiso  ? C
   C62        1.0     0.146970     0.862424     0.085859    Uiso  ? C
   C63        1.0     0.103030     0.835859     0.112424    Uiso  ? C
   C64        1.0     0.247052     0.702305     0.171412    Uiso  ? C
   C65        1.0     0.266567     0.798064     0.143938    Uiso  ? C
   C66        1.0     0.188673     0.715432     0.168284    Uiso  ? C
   C67        1.0     0.285564     0.744176     0.161549    Uiso  ? C
   C68        1.0     0.170725     0.767890     0.147967    Uiso  ? C
   C69        1.0     0.079275     0.897967     0.017890    Uiso  ? C
   C70        1.0     0.295485     0.840532     0.176777    Uiso  ? C
   C71        1.0     0.159468     0.676777     0.204515    Uiso  ? C
   C72        1.0     0.198898     0.860257     0.112469    Uiso  ? C
   C73        1.0     0.051102     0.862469     0.110257    Uiso  ? C
   C74        1.0     0.328588     0.752948     0.202305    Uiso  ? C
   C75        1.0     0.331716     0.811327     0.215432    Uiso  ? C
   C76        1.0     0.353355     0.882630     0.292320    Uiso  ? C
   C77        1.0     0.356062     0.733433     0.298064    Uiso  ? C
   C78        1.0     0.338451     0.714436     0.244176    Uiso  ? C
   C79        1.0     0.352033     0.829275     0.267890    Uiso  ? C
   C80        1.0     0.969570     0.915800     0.144381    Uiso  ? C
   C81        1.0     0.983433     0.893938     0.048064    Uiso  ? C
   C82        1.0     0.918284     0.965432     0.061327    Uiso  ? C
   C83        1.0     0.954515     0.926777     0.090532    Uiso  ? C
   C84        1.0     0.921412     0.952305     0.002948    Uiso  ? C
   C85        1.0     0.265087     0.097563     0.632268    Uiso  ? C
   C86        1.0     0.219570     0.105619     0.665800    Uiso  ? C
   C87        1.0     0.233433     0.201936     0.643938    Uiso  ? C
   C88        1.0     0.214436     0.255824     0.661549    Uiso  ? C
   C89        1.0     0.329275     0.232110     0.647967    Uiso  ? C
   C90        1.0     0.301102     0.139743     0.612469    Uiso  ? C
   C91        1.0     0.484913     0.117732     0.652437    Uiso  ? C
   C92        1.0     0.355619     0.030430     0.415800    Uiso  ? C
   C93        1.0     0.530430     0.084200     0.644381    Uiso  ? C
   C94        1.0     0.382630     0.207680     0.646645    Uiso  ? C
   C95        1.0     0.367370     0.103355     0.542320    Uiso  ? C
   C96        1.0     0.353030     0.137576     0.585859    Uiso  ? C
   C97        1.0     0.396970     0.164141     0.612424    Uiso  ? C
   C98        1.0     0.578588     0.047695     0.502948    Uiso  ? C
   C99        1.0     0.497052     0.078588     0.452305    Uiso  ? C
   C100       1.0     0.451936     0.016567     0.393938    Uiso  ? C
   C101       1.0     0.516567     0.106062     0.548064    Uiso  ? C
   C102       1.0     0.581716     0.034568     0.561327    Uiso  ? C
   C103       1.0     0.438673     0.081716     0.465432    Uiso  ? C
   C104       1.0     0.535564     0.088451     0.494176    Uiso  ? C
   C105       1.0     0.505824     0.035564     0.411549    Uiso  ? C
   C106       1.0     0.588451     0.005824     0.464436    Uiso  ? C
   C107       1.0     0.420725     0.102033     0.517890    Uiso  ? C
   C108       1.0     0.409468     0.045485     0.426777    Uiso  ? C
   C109       1.0     0.545485     0.073223     0.590532    Uiso  ? C
   C110       1.0     0.448898     0.137531     0.610257    Uiso  ? C
   C111       1.0     0.882630     0.292320     0.353355    Uiso  ? C
   C112       1.0     0.733433     0.298064     0.356062    Uiso  ? C
   C113       1.0     0.714436     0.244176     0.338451    Uiso  ? C
   C114       1.0     0.829275     0.267890     0.352033    Uiso  ? C
   C115       1.0     0.117732     0.652437     0.484913    Uiso  ? C
   C116       1.0     0.084200     0.644381     0.530430    Uiso  ? C
   C117       1.0     0.030430     0.415800     0.355619    Uiso  ? C
   C118       1.0     0.103355     0.542320     0.367370    Uiso  ? C
   C119       1.0     0.207680     0.646645     0.382630    Uiso  ? C
   C120       1.0     0.164141     0.612424     0.396970    Uiso  ? C
   C121       1.0     0.137576     0.585859     0.353030    Uiso  ? C
   C122       1.0     0.078588     0.452305     0.497052    Uiso  ? C
   C123       1.0     0.047695     0.502948     0.578588    Uiso  ? C
   C124       1.0     0.106062     0.548064     0.516567    Uiso  ? C
   C125       1.0     0.016567     0.393938     0.451936    Uiso  ? C
   C126       1.0     0.034568     0.561327     0.581716    Uiso  ? C
   C127       1.0     0.081716     0.465432     0.438673    Uiso  ? C
   C128       1.0     0.035564     0.411549     0.505824    Uiso  ? C
   C129       1.0     0.005824     0.464436     0.588451    Uiso  ? C
   C130       1.0     0.088451     0.494176     0.535564    Uiso  ? C
   C131       1.0     0.102033     0.517890     0.420725    Uiso  ? C
   C132       1.0     0.073223     0.590532     0.545485    Uiso  ? C
   C133       1.0     0.045485     0.426777     0.409468    Uiso  ? C
   C134       1.0     0.137531     0.610257     0.448898    Uiso  ? C
   C135       1.0     0.896970     0.335859     0.387576    Uiso  ? C
   C136       1.0     0.997052     0.421412     0.547695    Uiso  ? C
   C137       1.0     0.765087     0.402437     0.367732    Uiso  ? C
   C138       1.0     0.847563     0.515087     0.617732    Uiso  ? C
   C139       1.0     0.984913     0.382268     0.347563    Uiso  ? C
   C140       1.0     0.719570     0.394381     0.334200    Uiso  ? C
   C141       1.0     0.855619     0.469570     0.584200    Uiso  ? C
   C142       1.0     0.957680     0.632630     0.603355    Uiso  ? C
   C143       1.0     0.867370     0.396645     0.457680    Uiso  ? C
   C144       1.0     0.853030     0.362424     0.414141    Uiso  ? C
   C145       1.0     0.914141     0.646970     0.637576    Uiso  ? C
   C146       1.0     0.951936     0.483433     0.606062    Uiso  ? C
   C147       1.0     0.938673     0.418284     0.534568    Uiso  ? C
   C148       1.0     0.982110     0.579275     0.602033    Uiso  ? C
   C149       1.0     0.920725     0.397967     0.482110    Uiso  ? C
   C150       1.0     0.909468     0.454515     0.573223    Uiso  ? C
   C151       1.0     0.801102     0.360257     0.387531    Uiso  ? C
   C152       1.0     0.889743     0.551102     0.637531    Uiso  ? C
   C153       1.0     0.948898     0.362469     0.389743    Uiso  ? C
   C154       1.0     0.887576     0.603030     0.664141    Uiso  ? C
   C155       1.0     0.323223     0.704515     0.340532    Uiso  ? C
   C156       1.0     0.387576     0.896970     0.335859    Uiso  ? C
   C157       1.0     0.547695     0.997052     0.421412    Uiso  ? C
   C158       1.0     0.347563     0.984913     0.382268    Uiso  ? C
   C159       1.0     0.367732     0.765087     0.402437    Uiso  ? C
   C160       1.0     0.617732     0.847563     0.515087    Uiso  ? C
   C161       1.0     0.334200     0.719570     0.394381    Uiso  ? C
   C162       1.0     0.584200     0.855619     0.469570    Uiso  ? C
   C163       1.0     0.457680     0.867370     0.396645    Uiso  ? C
   C164       1.0     0.603355     0.957680     0.632630    Uiso  ? C
   C165       1.0     0.414141     0.853030     0.362424    Uiso  ? C
   C166       1.0     0.637576     0.914141     0.646970    Uiso  ? C
   C167       1.0     0.606062     0.951936     0.483433    Uiso  ? C
   C168       1.0     0.534568     0.938673     0.418284    Uiso  ? C
   C169       1.0     0.482110     0.920725     0.397967    Uiso  ? C
   C170       1.0     0.602033     0.982110     0.579275    Uiso  ? C
   C171       1.0     0.573223     0.909468     0.454515    Uiso  ? C
   C172       1.0     0.389743     0.948898     0.362469    Uiso  ? C
   C173       1.0     0.387531     0.801102     0.360257    Uiso  ? C
   C174       1.0     0.637531     0.889743     0.551102    Uiso  ? C
   C175       1.0     0.664141     0.887576     0.603030    Uiso  ? C
   C176       1.0     0.867732     0.734913     0.597563    Uiso  ? C
   C177       1.0     0.834200     0.780430     0.605619    Uiso  ? C
   C178       1.0     0.707680     0.853355     0.617370    Uiso  ? C
   C179       1.0     0.823223     0.795485     0.659468    Uiso  ? C
   C180       1.0     0.887531     0.698898     0.639743    Uiso  ? C
   C181       1.0     0.311327     0.284568     0.668284    Uiso  ? C
   C182       1.0     0.252948     0.297695     0.671412    Uiso  ? C
   C183       1.0     0.152437     0.015087     0.882268    Uiso  ? C
   C184       1.0     0.132268     0.234913     0.902437    Uiso  ? C
   C185       1.0     0.165800     0.280430     0.894381    Uiso  ? C
   C186       1.0     0.042320     0.132630     0.896645    Uiso  ? C
   C187       1.0     0.146645     0.117370     0.792320    Uiso  ? C
   C188       1.0     0.112424     0.103030     0.835859    Uiso  ? C
   C189       1.0     0.085859     0.146970     0.862424    Uiso  ? C
   C190       1.0     0.171412     0.247052     0.702305    Uiso  ? C
   C191       1.0     0.143938     0.266567     0.798064    Uiso  ? C
   C192       1.0     0.168284     0.188673     0.715432    Uiso  ? C
   C193       1.0     0.161549     0.285564     0.744176    Uiso  ? C
   C194       1.0     0.017890     0.079275     0.897967    Uiso  ? C
   C195       1.0     0.147967     0.170725     0.767890    Uiso  ? C
   C196       1.0     0.204515     0.159468     0.676777    Uiso  ? C
   C197       1.0     0.176777     0.295485     0.840532    Uiso  ? C
   C198       1.0     0.110257     0.051102     0.862469    Uiso  ? C
   C199       1.0     0.112469     0.198898     0.860257    Uiso  ? C
   C200       1.0     0.202305     0.328588     0.752948    Uiso  ? C
   C201       1.0     0.215432     0.331716     0.811327    Uiso  ? C
   C202       1.0     0.340532     0.323223     0.704515    Uiso  ? C
   C203       1.0     0.915800     0.144381     0.969570    Uiso  ? C
   C204       1.0     0.893938     0.048064     0.983433    Uiso  ? C
   C205       1.0     0.965432     0.061327     0.918284    Uiso  ? C
   C206       1.0     0.926777     0.090532     0.954515    Uiso  ? C
   C207       1.0     0.952305     0.002948     0.921412    Uiso  ? C
   C208       1.0     0.292320     0.353355     0.882630    Uiso  ? C
   C209       1.0     0.298064     0.356062     0.733433    Uiso  ? C
   C210       1.0     0.244176     0.338451     0.714436    Uiso  ? C
   C211       1.0     0.267890     0.352033     0.829275    Uiso  ? C
   C212       1.0     0.421412     0.547695     0.997052    Uiso  ? C
   C213       1.0     0.335859     0.387576     0.896970    Uiso  ? C
   C214       1.0     0.382268     0.347563     0.984913    Uiso  ? C
   C215       1.0     0.515087     0.617732     0.847563    Uiso  ? C
   C216       1.0     0.402437     0.367732     0.765087    Uiso  ? C
   C217       1.0     0.469570     0.584200     0.855619    Uiso  ? C
   C218       1.0     0.394381     0.334200     0.719570    Uiso  ? C
   C219       1.0     0.396645     0.457680     0.867370    Uiso  ? C
   C220       1.0     0.632630     0.603355     0.957680    Uiso  ? C
   C221       1.0     0.646970     0.637576     0.914141    Uiso  ? C
   C222       1.0     0.362424     0.414141     0.853030    Uiso  ? C
   C223       1.0     0.483433     0.606062     0.951936    Uiso  ? C
   C224       1.0     0.418284     0.534568     0.938673    Uiso  ? C
   C225       1.0     0.397967     0.482110     0.920725    Uiso  ? C
   C226       1.0     0.579275     0.602033     0.982110    Uiso  ? C
   C227       1.0     0.454515     0.573223     0.909468    Uiso  ? C
   C228       1.0     0.362469     0.389743     0.948898    Uiso  ? C
   C229       1.0     0.551102     0.637531     0.889743    Uiso  ? C
   C230       1.0     0.360257     0.387531     0.801102    Uiso  ? C
   C231       1.0     0.603030     0.664141     0.887576    Uiso  ? C
   C232       1.0     0.734913     0.597563     0.867732    Uiso  ? C
   C233       1.0     0.780430     0.605619     0.834200    Uiso  ? C
   C234       1.0     0.853355     0.617370     0.707680    Uiso  ? C
   C235       1.0     0.795485     0.659468     0.823223    Uiso  ? C
   C236       1.0     0.698898     0.639743     0.887531    Uiso  ? C
   C237       1.0     0.144381     0.969570     0.915800    Uiso  ? C
   C238       1.0     0.048064     0.983433     0.893938    Uiso  ? C
   C239       1.0     0.061327     0.918284     0.965432    Uiso  ? C
   C240       1.0     0.090532     0.954515     0.926777    Uiso  ? C
   C241       1.0     0.002948     0.921412     0.952305    Uiso  ? C
   C242       1.0     0.597563     0.867732     0.734913    Uiso  ? C
   C243       1.0     0.605619     0.834200     0.780430    Uiso  ? C
   C244       1.0     0.617370     0.707680     0.853355    Uiso  ? C
   C245       1.0     0.659468     0.823223     0.795485    Uiso  ? C
   C246       1.0     0.639743     0.887531     0.698898    Uiso  ? C
   C247       1.0     0.797695     0.828588     0.747052    Uiso  ? C
   C248       1.0     0.747052     0.797695     0.828588    Uiso  ? C
   C249       1.0     0.828588     0.747052     0.797695    Uiso  ? C
   C250       1.0     0.766567     0.701936     0.856062    Uiso  ? C
   C251       1.0     0.856062     0.766567     0.701936    Uiso  ? C
   C252       1.0     0.701936     0.856062     0.766567    Uiso  ? C
   C253       1.0     0.688673     0.784568     0.831716    Uiso  ? C
   C254       1.0     0.831716     0.688673     0.784568    Uiso  ? C
   C255       1.0     0.784568     0.831716     0.688673    Uiso  ? C
   C256       1.0     0.964436     0.911549     0.994176    Uiso  ? C
   C257       1.0     0.838451     0.785564     0.755824    Uiso  ? C
   C258       1.0     0.994176     0.964436     0.911549    Uiso  ? C
   C259       1.0     0.755824     0.838451     0.785564    Uiso  ? C
   C260       1.0     0.911549     0.994176     0.964436    Uiso  ? C
   C261       1.0     0.785564     0.755824     0.838451    Uiso  ? C
   C262       1.0     0.670725     0.732110     0.852033    Uiso  ? C
   C263       1.0     0.852033     0.670725     0.732110    Uiso  ? C
   C264       1.0     0.732110     0.852033     0.670725    Uiso  ? C
   N1         1.0     0.634898     0.289284     0.191791    Uiso  ? N
   N2         1.0     0.884898     0.058209     0.039284    Uiso  ? N
   N3         1.0     0.808209     0.134898     0.210716    Uiso  ? N
   N4         1.0     0.191791     0.634898     0.289284    Uiso  ? N
   N5         1.0     0.558209     0.460716     0.115102    Uiso  ? N
   N6         1.0     0.210716     0.808209     0.134898    Uiso  ? N
   N7         1.0     0.039284     0.884898     0.058209    Uiso  ? N
   N8         1.0     0.365102     0.789284     0.308209    Uiso  ? N
   N9         1.0     0.289284     0.191791     0.634898    Uiso  ? N
   N10        1.0     0.460716     0.115102     0.558209    Uiso  ? N
   N11        1.0     0.789284     0.308209     0.365102    Uiso  ? N
   N12        1.0     0.115102     0.558209     0.460716    Uiso  ? N
   N13        1.0     0.941791     0.539284     0.615102    Uiso  ? N
   N14        1.0     0.960716     0.384898     0.441791    Uiso  ? N
   N15        1.0     0.441791     0.960716     0.384898    Uiso  ? N
   N16        1.0     0.615102     0.941791     0.539284    Uiso  ? N
   N17        1.0     0.058209     0.039284     0.884898    Uiso  ? N
   N18        1.0     0.134898     0.210716     0.808209    Uiso  ? N
   N19        1.0     0.308209     0.365102     0.789284    Uiso  ? N
   N20        1.0     0.384898     0.441791     0.960716    Uiso  ? N
   N21        1.0     0.539284     0.615102     0.941791    Uiso  ? N
   N22        1.0     0.710716     0.691791     0.865102    Uiso  ? N
   N23        1.0     0.865102     0.710716     0.691791    Uiso  ? N
   N24        1.0     0.691791     0.865102     0.710716    Uiso  ? N
   H1         1.0     0.620621     0.275554     0.054744    Uiso  ? H
   H2         1.0     0.432212     0.319973     0.053377    Uiso  ? H
   H3         1.0     0.682212     0.196623     0.069973    Uiso  ? H
   H4         1.0     0.945256     0.120621     0.224446    Uiso  ? H
   H5         1.0     0.870621     0.195256     0.025554    Uiso  ? H
   H6         1.0     0.930027     0.182212     0.303377    Uiso  ? H
   H7         1.0     0.924964     0.026016     0.164226    Uiso  ? H
   H8         1.0     0.776016     0.174964     0.085774    Uiso  ? H
   H9         1.0     0.914226     0.276016     0.325036    Uiso  ? H
   H10        1.0     0.054744     0.620621     0.275554    Uiso  ? H
   H11        1.0     0.053377     0.432212     0.319973    Uiso  ? H
   H12        1.0     0.526016     0.335774     0.075036    Uiso  ? H
   H13        1.0     0.674964     0.414226     0.223984    Uiso  ? H
   H14        1.0     0.974446     0.370621     0.304744    Uiso  ? H
   H15        1.0     0.695256     0.474446     0.129379    Uiso  ? H
   H16        1.0     0.680027     0.553377     0.067788    Uiso  ? H
   H17        1.0     0.696623     0.430027     0.317788    Uiso  ? H
   H18        1.0     0.069973     0.682212     0.196623    Uiso  ? H
   H19        1.0     0.224446     0.945256     0.120621    Uiso  ? H
   H20        1.0     0.025554     0.870621     0.195256    Uiso  ? H
   H21        1.0     0.303377     0.930027     0.182212    Uiso  ? H
   H22        1.0     0.085774     0.776016     0.174964    Uiso  ? H
   H23        1.0     0.164226     0.924964     0.026016    Uiso  ? H
   H24        1.0     0.325036     0.914226     0.276016    Uiso  ? H
   H25        1.0     0.946623     0.932212     0.180027    Uiso  ? H
   H26        1.0     0.275554     0.054744     0.620621    Uiso  ? H
   H27        1.0     0.319973     0.053377     0.432212    Uiso  ? H
   H28        1.0     0.335774     0.075036     0.526016    Uiso  ? H
   H29        1.0     0.075036     0.526016     0.335774    Uiso  ? H
   H30        1.0     0.775554     0.445256     0.379379    Uiso  ? H
   H31        1.0     0.804744     0.525554     0.629379    Uiso  ? H
   H32        1.0     0.819973     0.446623     0.567788    Uiso  ? H
   H33        1.0     0.835774     0.424964     0.473984    Uiso  ? H
   H34        1.0     0.973984     0.664226     0.575036    Uiso  ? H
   H35        1.0     0.223984     0.674964     0.414226    Uiso  ? H
   H36        1.0     0.129379     0.695256     0.474446    Uiso  ? H
   H37        1.0     0.304744     0.974446     0.370621    Uiso  ? H
   H38        1.0     0.067788     0.680027     0.553377    Uiso  ? H
   H39        1.0     0.317788     0.696623     0.430027    Uiso  ? H
   H40        1.0     0.629379     0.804744     0.525554    Uiso  ? H
   H41        1.0     0.379379     0.775554     0.445256    Uiso  ? H
   H42        1.0     0.567788     0.819973     0.446623    Uiso  ? H
   H43        1.0     0.473984     0.835774     0.424964    Uiso  ? H
   H44        1.0     0.575036     0.973984     0.664226    Uiso  ? H
   H45        1.0     0.879379     0.724446     0.554744    Uiso  ? H
   H46        1.0     0.817788     0.803377     0.569973    Uiso  ? H
   H47        1.0     0.723984     0.825036     0.585774    Uiso  ? H
   H48        1.0     0.196623     0.069973     0.682212    Uiso  ? H
   H49        1.0     0.120621     0.224446     0.945256    Uiso  ? H
   H50        1.0     0.195256     0.025554     0.870621    Uiso  ? H
   H51        1.0     0.182212     0.303377     0.930027    Uiso  ? H
   H52        1.0     0.026016     0.164226     0.924964    Uiso  ? H
   H53        1.0     0.174964     0.085774     0.776016    Uiso  ? H
   H54        1.0     0.276016     0.325036     0.914226    Uiso  ? H
   H55        1.0     0.414226     0.223984     0.674964    Uiso  ? H
   H56        1.0     0.370621     0.304744     0.974446    Uiso  ? H
   H57        1.0     0.474446     0.129379     0.695256    Uiso  ? H
   H58        1.0     0.553377     0.067788     0.680027    Uiso  ? H
   H59        1.0     0.430027     0.317788     0.696623    Uiso  ? H
   H60        1.0     0.932212     0.180027     0.946623    Uiso  ? H
   H61        1.0     0.445256     0.379379     0.775554    Uiso  ? H
   H62        1.0     0.525554     0.629379     0.804744    Uiso  ? H
   H63        1.0     0.446623     0.567788     0.819973    Uiso  ? H
   H64        1.0     0.424964     0.473984     0.835774    Uiso  ? H
   H65        1.0     0.664226     0.575036     0.973984    Uiso  ? H
   H66        1.0     0.724446     0.554744     0.879379    Uiso  ? H
   H67        1.0     0.803377     0.569973     0.817788    Uiso  ? H
   H68        1.0     0.825036     0.585774     0.723984    Uiso  ? H
   H69        1.0     0.180027     0.946623     0.932212    Uiso  ? H
   H70        1.0     0.554744     0.879379     0.724446    Uiso  ? H
   H71        1.0     0.569973     0.817788     0.803377    Uiso  ? H
   H72        1.0     0.585774     0.723984     0.825036    Uiso  ? H
