
#======================================================================
# CRYSTAL DATA
#----------------------------------------------------------------------
data_VESTA_phase_1

_chemical_name_common                  'POSCAR file written by OVITO Basic 3.8'
_cell_length_a                         23.190901
_cell_length_b                         23.190901
_cell_length_c                         23.190901
_cell_angle_alpha                      90.000000
_cell_angle_beta                       90.000000
_cell_angle_gamma                      90.000000
_cell_volume                           12472.481106
_space_group_name_H-M_alt              'P 1'
_space_group_IT_number                 1

loop_
_space_group_symop_operation_xyz
   'x, y, z'

loop_
   _atom_site_label
   _atom_site_occupancy
   _atom_site_fract_x
   _atom_site_fract_y
   _atom_site_fract_z
   _atom_site_adp_type
   _atom_site_U_iso_or_equiv
   _atom_site_type_symbol
   C1         1.0     0.616608     0.258268     0.096929    Uiso  ? C
   C2         1.0     0.649569     0.208369     0.101731    Uiso  ? C
   C3         1.0     0.649566     0.227589     0.202388    Uiso  ? C
   C4         1.0     0.660182     0.206594     0.255542    Uiso  ? C
   C5         1.0     0.631589     0.283358     0.195616    Uiso  ? C
   C6         1.0     0.642316     0.326409     0.237903    Uiso  ? C
   C7         1.0     0.607919     0.297558     0.141825    Uiso  ? C
   C8         1.0     0.659436     0.245402     0.301997    Uiso  ? C
   C9         1.0     0.866606     0.153066     0.008273    Uiso  ? C
   C10        1.0     0.903071     0.116607     0.241731    Uiso  ? C
   C11        1.0     0.898269     0.149569     0.291631    Uiso  ? C
   C12        1.0     0.889515     0.030221     0.134839    Uiso  ? C
   C13        1.0     0.780220     0.139516     0.115164    Uiso  ? C
   C14        1.0     0.831727     0.111248     0.102303    Uiso  ? C
   C15        1.0     0.861250     0.081726     0.147699    Uiso  ? C
   C16        1.0     0.698001     0.159437     0.254597    Uiso  ? C
   C17        1.0     0.797612     0.149565     0.272410    Uiso  ? C
   C18        1.0     0.744459     0.160183     0.293408    Uiso  ? C
   C19        1.0     0.881586     0.054378     0.033377    Uiso  ? C
   C20        1.0     0.804386     0.131589     0.216643    Uiso  ? C
   C21        1.0     0.892315     0.012100     0.076400    Uiso  ? C
   C22        1.0     0.762096     0.142316     0.173592    Uiso  ? C
   C23        1.0     0.671309     0.193452     0.157217    Uiso  ? C
   C24        1.0     0.842782     0.171310     0.306549    Uiso  ? C
   C25        1.0     0.857921     0.108182     0.047547    Uiso  ? C
   C26        1.0     0.858173     0.107921     0.202445    Uiso  ? C
   C27        1.0     0.096929     0.616608     0.258268    Uiso  ? C
   C28        1.0     0.101731     0.649569     0.208369    Uiso  ? C
   C29        1.0     0.202388     0.649565     0.227590    Uiso  ? C
   C30        1.0     0.255542     0.660182     0.206594    Uiso  ? C
   C31        1.0     0.195616     0.631589     0.283358    Uiso  ? C
   C32        1.0     0.237903     0.642316     0.326409    Uiso  ? C
   C33        1.0     0.141825     0.607919     0.297557    Uiso  ? C
   C34        1.0     0.301998     0.659436     0.245402    Uiso  ? C
   C35        1.0     0.653071     0.491731     0.133392    Uiso  ? C
   C36        1.0     0.648269     0.541631     0.100431    Uiso  ? C
   C37        1.0     0.399569     0.351731     0.041631    Uiso  ? C
   C38        1.0     0.530218     0.365165     0.110484    Uiso  ? C
   C39        1.0     0.639516     0.384834     0.219782    Uiso  ? C
   C40        1.0     0.611248     0.397702     0.168270    Uiso  ? C
   C41        1.0     0.581730     0.352297     0.138752    Uiso  ? C
   C42        1.0     0.495401     0.590564     0.051997    Uiso  ? C
   C43        1.0     0.448002     0.504598     0.090564    Uiso  ? C
   C44        1.0     0.547612     0.522411     0.100435    Uiso  ? C
   C45        1.0     0.399565     0.452388     0.022410    Uiso  ? C
   C46        1.0     0.456594     0.589818     0.005542    Uiso  ? C
   C47        1.0     0.494458     0.543406     0.089818    Uiso  ? C
   C48        1.0     0.410182     0.505541     0.043406    Uiso  ? C
   C49        1.0     0.554384     0.466642     0.118411    Uiso  ? C
   C50        1.0     0.512097     0.423591     0.107684    Uiso  ? C
   C51        1.0     0.592782     0.556548     0.078691    Uiso  ? C
   C52        1.0     0.421310     0.407218     0.056549    Uiso  ? C
   C53        1.0     0.608175     0.452443     0.142081    Uiso  ? C
   C54        1.0     0.409436     0.551998     0.004598    Uiso  ? C
   C55        1.0     0.693452     0.342783     0.328691    Uiso  ? C
   C56        1.0     0.241731     0.903070     0.116608    Uiso  ? C
   C57        1.0     0.008268     0.866608     0.153070    Uiso  ? C
   C58        1.0     0.291631     0.898269     0.149569    Uiso  ? C
   C59        1.0     0.115166     0.780218     0.139516    Uiso  ? C
   C60        1.0     0.134834     0.889517     0.030218    Uiso  ? C
   C61        1.0     0.147702     0.861247     0.081730    Uiso  ? C
   C62        1.0     0.102298     0.831730     0.111248    Uiso  ? C
   C63        1.0     0.254598     0.698002     0.159436    Uiso  ? C
   C64        1.0     0.272411     0.797612     0.149566    Uiso  ? C
   C65        1.0     0.293406     0.744458     0.160182    Uiso  ? C
   C66        1.0     0.216642     0.804384     0.131589    Uiso  ? C
   C67        1.0     0.033355     0.881590     0.054384    Uiso  ? C
   C68        1.0     0.173591     0.762097     0.142316    Uiso  ? C
   C69        1.0     0.076411     0.892315     0.012098    Uiso  ? C
   C70        1.0     0.306548     0.842782     0.171309    Uiso  ? C
   C71        1.0     0.157218     0.671309     0.193452    Uiso  ? C
   C72        1.0     0.202443     0.858175     0.107919    Uiso  ? C
   C73        1.0     0.047557     0.857919     0.108176    Uiso  ? C
   C74        1.0     0.340564     0.745402     0.198002    Uiso  ? C
   C75        1.0     0.360484     0.884835     0.280219    Uiso  ? C
   C76        1.0     0.388752     0.897702     0.331729    Uiso  ? C
   C77        1.0     0.350435     0.727589     0.297612    Uiso  ? C
   C78        1.0     0.339818     0.706594     0.244459    Uiso  ? C
   C79        1.0     0.368411     0.783357     0.304384    Uiso  ? C
   C80        1.0     0.357684     0.826409     0.262096    Uiso  ? C
   C81        1.0     0.958370     0.899568     0.148270    Uiso  ? C
   C82        1.0     0.977591     0.899565     0.047616    Uiso  ? C
   C83        1.0     0.943451     0.921310     0.092779    Uiso  ? C
   C84        1.0     0.258272     0.096932     0.616607    Uiso  ? C
   C85        1.0     0.208367     0.101726     0.649569    Uiso  ? C
   C86        1.0     0.227583     0.202387     0.649564    Uiso  ? C
   C87        1.0     0.206596     0.255543     0.660182    Uiso  ? C
   C88        1.0     0.283372     0.195619     0.631586    Uiso  ? C
   C89        1.0     0.326404     0.237901     0.642315    Uiso  ? C
   C90        1.0     0.297549     0.141822     0.607922    Uiso  ? C
   C91        1.0     0.245398     0.301994     0.659433    Uiso  ? C
   C92        1.0     0.491730     0.133393     0.653069    Uiso  ? C
   C93        1.0     0.351730     0.041631     0.399569    Uiso  ? C
   C94        1.0     0.541631     0.100432     0.648271    Uiso  ? C
   C95        1.0     0.384837     0.219779     0.639515    Uiso  ? C
   C96        1.0     0.365163     0.110483     0.530218    Uiso  ? C
   C97        1.0     0.352305     0.138753     0.581728    Uiso  ? C
   C98        1.0     0.397695     0.168274     0.611249    Uiso  ? C
   C99        1.0     0.590565     0.051997     0.495399    Uiso  ? C
   C100       1.0     0.504599     0.090564     0.448003    Uiso  ? C
   C101       1.0     0.452387     0.022411     0.399566    Uiso  ? C
   C102       1.0     0.522384     0.100456     0.547609    Uiso  ? C
   C103       1.0     0.543407     0.089818     0.494460    Uiso  ? C
   C104       1.0     0.505541     0.043406     0.410182    Uiso  ? C
   C105       1.0     0.589817     0.005542     0.456593    Uiso  ? C
   C106       1.0     0.466648     0.118409     0.554384    Uiso  ? C
   C107       1.0     0.423592     0.107684     0.512095    Uiso  ? C
   C108       1.0     0.407218     0.056548     0.421309    Uiso  ? C
   C109       1.0     0.556551     0.078689     0.592783    Uiso  ? C
   C110       1.0     0.452449     0.142079     0.608176    Uiso  ? C
   C111       1.0     0.551999     0.004598     0.409437    Uiso  ? C
   C112       1.0     0.745401     0.198003     0.340563    Uiso  ? C
   C113       1.0     0.884834     0.280218     0.360483    Uiso  ? C
   C114       1.0     0.897703     0.331730     0.388752    Uiso  ? C
   C115       1.0     0.727589     0.297613     0.350434    Uiso  ? C
   C116       1.0     0.706595     0.244458     0.339818    Uiso  ? C
   C117       1.0     0.783358     0.304384     0.368411    Uiso  ? C
   C118       1.0     0.826410     0.262098     0.357685    Uiso  ? C
   C119       1.0     0.133392     0.653071     0.491732    Uiso  ? C
   C120       1.0     0.100431     0.648269     0.541631    Uiso  ? C
   C121       1.0     0.041631     0.399569     0.351731    Uiso  ? C
   C122       1.0     0.110484     0.530218     0.365165    Uiso  ? C
   C123       1.0     0.219782     0.639516     0.384835    Uiso  ? C
   C124       1.0     0.168270     0.611248     0.397702    Uiso  ? C
   C125       1.0     0.138752     0.581730     0.352298    Uiso  ? C
   C126       1.0     0.090564     0.448002     0.504598    Uiso  ? C
   C127       1.0     0.051998     0.495402     0.590564    Uiso  ? C
   C128       1.0     0.100434     0.547612     0.522411    Uiso  ? C
   C129       1.0     0.022411     0.399565     0.452388    Uiso  ? C
   C130       1.0     0.043406     0.410182     0.505542    Uiso  ? C
   C131       1.0     0.005542     0.456594     0.589818    Uiso  ? C
   C132       1.0     0.089818     0.494458     0.543406    Uiso  ? C
   C133       1.0     0.118411     0.554384     0.466642    Uiso  ? C
   C134       1.0     0.107684     0.512097     0.423591    Uiso  ? C
   C135       1.0     0.078691     0.592782     0.556548    Uiso  ? C
   C136       1.0     0.056548     0.421309     0.407218    Uiso  ? C
   C137       1.0     0.142081     0.608175     0.452443    Uiso  ? C
   C138       1.0     0.004598     0.409436     0.551998    Uiso  ? C
   C139       1.0     0.758269     0.403071     0.383392    Uiso  ? C
   C140       1.0     0.846929     0.508269     0.633392    Uiso  ? C
   C141       1.0     0.991732     0.366608     0.346929    Uiso  ? C
   C142       1.0     0.708369     0.398269     0.350431    Uiso  ? C
   C143       1.0     0.851731     0.458369     0.600431    Uiso  ? C
   C144       1.0     0.969782     0.634835     0.610484    Uiso  ? C
   C145       1.0     0.865166     0.389516     0.469782    Uiso  ? C
   C146       1.0     0.852297     0.361248     0.418270    Uiso  ? C
   C147       1.0     0.918270     0.647703     0.638752    Uiso  ? C
   C148       1.0     0.952388     0.477589     0.600435    Uiso  ? C
   C149       1.0     0.945616     0.533358     0.618411    Uiso  ? C
   C150       1.0     0.966642     0.381589     0.445616    Uiso  ? C
   C151       1.0     0.987903     0.576409     0.607684    Uiso  ? C
   C152       1.0     0.923591     0.392316     0.487903    Uiso  ? C
   C153       1.0     0.907218     0.443452     0.578691    Uiso  ? C
   C154       1.0     0.797558     0.358176     0.392082    Uiso  ? C
   C155       1.0     0.891825     0.547557     0.642081    Uiso  ? C
   C156       1.0     0.952443     0.357919     0.391825    Uiso  ? C
   C157       1.0     0.328691     0.693451     0.342782    Uiso  ? C
   C158       1.0     0.346930     0.991732     0.366608    Uiso  ? C
   C159       1.0     0.383392     0.758269     0.403071    Uiso  ? C
   C160       1.0     0.633392     0.846929     0.508269    Uiso  ? C
   C161       1.0     0.350431     0.708369     0.398269    Uiso  ? C
   C162       1.0     0.600431     0.851731     0.458368    Uiso  ? C
   C163       1.0     0.469782     0.865166     0.389516    Uiso  ? C
   C164       1.0     0.610484     0.969782     0.634834    Uiso  ? C
   C165       1.0     0.418270     0.852298     0.361248    Uiso  ? C
   C166       1.0     0.638752     0.918270     0.647701    Uiso  ? C
   C167       1.0     0.600434     0.952388     0.477588    Uiso  ? C
   C168       1.0     0.445616     0.966643     0.381589    Uiso  ? C
   C169       1.0     0.618412     0.945615     0.533360    Uiso  ? C
   C170       1.0     0.487904     0.923590     0.392316    Uiso  ? C
   C171       1.0     0.607684     0.987903     0.576410    Uiso  ? C
   C172       1.0     0.578691     0.907218     0.443452    Uiso  ? C
   C173       1.0     0.391824     0.952442     0.357919    Uiso  ? C
   C174       1.0     0.392081     0.797557     0.358175    Uiso  ? C
   C175       1.0     0.642080     0.891826     0.547556    Uiso  ? C
   C176       1.0     0.883392     0.741732     0.596930    Uiso  ? C
   C177       1.0     0.850431     0.791631     0.601730    Uiso  ? C
   C178       1.0     0.719782     0.860483     0.615166    Uiso  ? C
   C179       1.0     0.668270     0.888752     0.602299    Uiso  ? C
   C180       1.0     0.828691     0.806549     0.657218    Uiso  ? C
   C181       1.0     0.892082     0.702442     0.641825    Uiso  ? C
   C182       1.0     0.153072     0.008268     0.866607    Uiso  ? C
   C183       1.0     0.116607     0.241731     0.903071    Uiso  ? C
   C184       1.0     0.149569     0.291631     0.898269    Uiso  ? C
   C185       1.0     0.030221     0.134837     0.889515    Uiso  ? C
   C186       1.0     0.139516     0.115164     0.780220    Uiso  ? C
   C187       1.0     0.111249     0.102298     0.831728    Uiso  ? C
   C188       1.0     0.081728     0.147702     0.861249    Uiso  ? C
   C189       1.0     0.159437     0.254595     0.697998    Uiso  ? C
   C190       1.0     0.149565     0.272409     0.797613    Uiso  ? C
   C191       1.0     0.160185     0.293412     0.744462    Uiso  ? C
   C192       1.0     0.054387     0.033356     0.881588    Uiso  ? C
   C193       1.0     0.131589     0.216643     0.804386    Uiso  ? C
   C194       1.0     0.012089     0.076405     0.892319    Uiso  ? C
   C195       1.0     0.142318     0.173593     0.762091    Uiso  ? C
   C196       1.0     0.193455     0.157223     0.671307    Uiso  ? C
   C197       1.0     0.171310     0.306549     0.842782    Uiso  ? C
   C198       1.0     0.108173     0.047558     0.857919    Uiso  ? C
   C199       1.0     0.107920     0.202443     0.858174    Uiso  ? C
   C200       1.0     0.342776     0.328688     0.693450    Uiso  ? C
   C201       1.0     0.899569     0.148277     0.958366    Uiso  ? C
   C202       1.0     0.899565     0.047615     0.977578    Uiso  ? C
   C203       1.0     0.921306     0.092773     0.943457    Uiso  ? C
   C204       1.0     0.198001     0.340561     0.745399    Uiso  ? C
   C205       1.0     0.280217     0.360483     0.884836    Uiso  ? C
   C206       1.0     0.331731     0.388753     0.897701    Uiso  ? C
   C207       1.0     0.297613     0.350444     0.727600    Uiso  ? C
   C208       1.0     0.244459     0.339820     0.706598    Uiso  ? C
   C209       1.0     0.304382     0.368410     0.783357    Uiso  ? C
   C210       1.0     0.262098     0.357685     0.826408    Uiso  ? C
   C211       1.0     0.366608     0.346929     0.991732    Uiso  ? C
   C212       1.0     0.508269     0.633392     0.846929    Uiso  ? C
   C213       1.0     0.403068     0.383392     0.758269    Uiso  ? C
   C214       1.0     0.458369     0.600431     0.851731    Uiso  ? C
   C215       1.0     0.398274     0.350433     0.708370    Uiso  ? C
   C216       1.0     0.389516     0.469781     0.865165    Uiso  ? C
   C217       1.0     0.634835     0.610484     0.969782    Uiso  ? C
   C218       1.0     0.647703     0.638752     0.918270    Uiso  ? C
   C219       1.0     0.361248     0.418272     0.852303    Uiso  ? C
   C220       1.0     0.477588     0.600434     0.952388    Uiso  ? C
   C221       1.0     0.381589     0.445616     0.966644    Uiso  ? C
   C222       1.0     0.533359     0.618411     0.945616    Uiso  ? C
   C223       1.0     0.392316     0.487903     0.923591    Uiso  ? C
   C224       1.0     0.576409     0.607684     0.987903    Uiso  ? C
   C225       1.0     0.443452     0.578691     0.907218    Uiso  ? C
   C226       1.0     0.357918     0.391825     0.952442    Uiso  ? C
   C227       1.0     0.547556     0.642081     0.891825    Uiso  ? C
   C228       1.0     0.358177     0.392079     0.797552    Uiso  ? C
   C229       1.0     0.741732     0.596929     0.883392    Uiso  ? C
   C230       1.0     0.791631     0.601730     0.850431    Uiso  ? C
   C231       1.0     0.860484     0.615166     0.719782    Uiso  ? C
   C232       1.0     0.888752     0.602297     0.668270    Uiso  ? C
   C233       1.0     0.806549     0.657218     0.828690    Uiso  ? C
   C234       1.0     0.702442     0.641825     0.892082    Uiso  ? C
   C235       1.0     0.148269     0.958369     0.899569    Uiso  ? C
   C236       1.0     0.047610     0.977592     0.899565    Uiso  ? C
   C237       1.0     0.092782     0.943450     0.921311    Uiso  ? C
   C238       1.0     0.596929     0.883392     0.741732    Uiso  ? C
   C239       1.0     0.601731     0.850431     0.791631    Uiso  ? C
   C240       1.0     0.615166     0.719782     0.860484    Uiso  ? C
   C241       1.0     0.602298     0.668270     0.888752    Uiso  ? C
   C242       1.0     0.657217     0.828691     0.806549    Uiso  ? C
   C243       1.0     0.641826     0.892081     0.702443    Uiso  ? C
   C244       1.0     0.909434     0.948007     0.995395    Uiso  ? C
   C245       1.0     0.947999     0.995407     0.909435    Uiso  ? C
   C246       1.0     0.995401     0.909441     0.947998    Uiso  ? C
   C247       1.0     0.801997     0.840564     0.754599    Uiso  ? C
   C248       1.0     0.754598     0.801998     0.840564    Uiso  ? C
   C249       1.0     0.840564     0.754599     0.801997    Uiso  ? C
   C250       1.0     0.772410     0.702388     0.850435    Uiso  ? C
   C251       1.0     0.850436     0.772409     0.702388    Uiso  ? C
   C252       1.0     0.702388     0.850435     0.772411    Uiso  ? C
   C253       1.0     0.956595     0.910181     0.994458    Uiso  ? C
   C254       1.0     0.839818     0.793406     0.755542    Uiso  ? C
   C255       1.0     0.994464     0.956584     0.910187    Uiso  ? C
   C256       1.0     0.755542     0.839818     0.793406    Uiso  ? C
   C257       1.0     0.910179     0.994454     0.956602    Uiso  ? C
   C258       1.0     0.793406     0.755541     0.839818    Uiso  ? C
   C259       1.0     0.716644     0.695616     0.868411    Uiso  ? C
   C260       1.0     0.868411     0.716643     0.695616    Uiso  ? C
   C261       1.0     0.695615     0.868411     0.716643    Uiso  ? C
   C262       1.0     0.673590     0.737903     0.857684    Uiso  ? C
   C263       1.0     0.857684     0.673590     0.737903    Uiso  ? C
   C264       1.0     0.737903     0.857684     0.673590    Uiso  ? C
   H1         1.0     0.598090     0.268520     0.054932    Uiso  ? H
   H2         1.0     0.407192     0.314625     0.069348    Uiso  ? H
   H3         1.0     0.657192     0.180652     0.064625    Uiso  ? H
   H4         1.0     0.506171     0.330360     0.090330    Uiso  ? H
   H5         1.0     0.945068     0.098090     0.231480    Uiso  ? H
   H6         1.0     0.848090     0.195069     0.018520    Uiso  ? H
   H7         1.0     0.935375     0.157192     0.319348    Uiso  ? H
   H8         1.0     0.909670     0.006171     0.169640    Uiso  ? H
   H9         1.0     0.756171     0.159671     0.080360    Uiso  ? H
   H10        1.0     0.054932     0.598090     0.268520    Uiso  ? H
   H11        1.0     0.064625     0.657192     0.180652    Uiso  ? H
   H12        1.0     0.069348     0.407192     0.314625    Uiso  ? H
   H13        1.0     0.090330     0.506171     0.330360    Uiso  ? H
   H14        1.0     0.659670     0.419640     0.243829    Uiso  ? H
   H15        1.0     0.981480     0.348090     0.304932    Uiso  ? H
   H16        1.0     0.695068     0.481480     0.151910    Uiso  ? H
   H17        1.0     0.685375     0.569348     0.092808    Uiso  ? H
   H18        1.0     0.231480     0.945068     0.098090    Uiso  ? H
   H19        1.0     0.018520     0.848090     0.195068    Uiso  ? H
   H20        1.0     0.319348     0.935375     0.157192    Uiso  ? H
   H21        1.0     0.080360     0.756171     0.159670    Uiso  ? H
   H22        1.0     0.169640     0.909670     0.006171    Uiso  ? H
   H23        1.0     0.340330     0.919640     0.256171    Uiso  ? H
   H24        1.0     0.930652     0.907192     0.185375    Uiso  ? H
   H25        1.0     0.268520     0.054931     0.598090    Uiso  ? H
   H26        1.0     0.180653     0.064626     0.657192    Uiso  ? H
   H27        1.0     0.314625     0.069348     0.407192    Uiso  ? H
   H28        1.0     0.330360     0.090330     0.506171    Uiso  ? H
   H29        1.0     0.419640     0.243830     0.659670    Uiso  ? H
   H30        1.0     0.919640     0.256171     0.340330    Uiso  ? H
   H31        1.0     0.243829     0.659670     0.419640    Uiso  ? H
   H32        1.0     0.768520     0.445068     0.401910    Uiso  ? H
   H33        1.0     0.804932     0.518520     0.651910    Uiso  ? H
   H34        1.0     0.680652     0.435375     0.342808    Uiso  ? H
   H35        1.0     0.814625     0.430652     0.592808    Uiso  ? H
   H36        1.0     0.830360     0.409670     0.493829    Uiso  ? H
   H37        1.0     0.151910     0.695068     0.481480    Uiso  ? H
   H38        1.0     0.304932     0.981480     0.348090    Uiso  ? H
   H39        1.0     0.092808     0.685375     0.569348    Uiso  ? H
   H40        1.0     0.651910     0.804932     0.518520    Uiso  ? H
   H41        1.0     0.401910     0.768520     0.445068    Uiso  ? H
   H42        1.0     0.592808     0.814625     0.430652    Uiso  ? H
   H43        1.0     0.342808     0.680652     0.435375    Uiso  ? H
   H44        1.0     0.493829     0.830360     0.409670    Uiso  ? H
   H45        1.0     0.901910     0.731480     0.554932    Uiso  ? H
   H46        1.0     0.842808     0.819348     0.564625    Uiso  ? H
   H47        1.0     0.993829     0.669640     0.590330    Uiso  ? H
   H48        1.0     0.743829     0.840330     0.580360    Uiso  ? H
   H49        1.0     0.098090     0.231480     0.945068    Uiso  ? H
   H50        1.0     0.195068     0.018520     0.848090    Uiso  ? H
   H51        1.0     0.157192     0.319348     0.935375    Uiso  ? H
   H52        1.0     0.006171     0.169640     0.909670    Uiso  ? H
   H53        1.0     0.159670     0.080360     0.756171    Uiso  ? H
   H54        1.0     0.348090     0.304932     0.981480    Uiso  ? H
   H55        1.0     0.481480     0.151910     0.695068    Uiso  ? H
   H56        1.0     0.569348     0.092808     0.685375    Uiso  ? H
   H57        1.0     0.907192     0.185373     0.930654    Uiso  ? H
   H58        1.0     0.256171     0.340330     0.919640    Uiso  ? H
   H59        1.0     0.445069     0.401910     0.768520    Uiso  ? H
   H60        1.0     0.518520     0.651910     0.804932    Uiso  ? H
   H61        1.0     0.435375     0.342808     0.680653    Uiso  ? H
   H62        1.0     0.430652     0.592808     0.814625    Uiso  ? H
   H63        1.0     0.409670     0.493829     0.830360    Uiso  ? H
   H64        1.0     0.731480     0.554932     0.901910    Uiso  ? H
   H65        1.0     0.819348     0.564625     0.842808    Uiso  ? H
   H66        1.0     0.840330     0.580360     0.743829    Uiso  ? H
   H67        1.0     0.669640     0.590330     0.993829    Uiso  ? H
   H68        1.0     0.185375     0.930652     0.907192    Uiso  ? H
   H69        1.0     0.554932     0.901910     0.731480    Uiso  ? H
   H70        1.0     0.564625     0.842808     0.819348    Uiso  ? H
   H71        1.0     0.580360     0.743829     0.840330    Uiso  ? H
   H72        1.0     0.590330     0.993829     0.669640    Uiso  ? H
   N1         1.0     0.664052     0.305041     0.289669    Uiso  ? N
   N2         1.0     0.710331     0.164053     0.194959    Uiso  ? N
   N3         1.0     0.289670     0.664053     0.305042    Uiso  ? N
   N4         1.0     0.460330     0.444959     0.085947    Uiso  ? N
   N5         1.0     0.555042     0.585947     0.039670    Uiso  ? N
   N6         1.0     0.194959     0.710331     0.164052    Uiso  ? N
   N7         1.0     0.335947     0.805041     0.210331    Uiso  ? N
   N8         1.0     0.914054     0.960329     0.055045    Uiso  ? N
   N9         1.0     0.305045     0.289663     0.664045    Uiso  ? N
   N10        1.0     0.585965     0.039653     0.555044    Uiso  ? N
   N11        1.0     0.444958     0.085947     0.460331    Uiso  ? N
   N12        1.0     0.805042     0.210329     0.335947    Uiso  ? N
   N13        1.0     0.039670     0.555041     0.585947    Uiso  ? N
   N14        1.0     0.085947     0.460330     0.444959    Uiso  ? N
   N15        1.0     0.944959     0.414053     0.539670    Uiso  ? N
   N16        1.0     0.539669     0.944958     0.414052    Uiso  ? N
   N17        1.0     0.164043     0.194956     0.710342    Uiso  ? N
   N18        1.0     0.960345     0.055044     0.914041    Uiso  ? N
   N19        1.0     0.210329     0.335946     0.805043    Uiso  ? N
   N20        1.0     0.414052     0.539669     0.944959    Uiso  ? N
   N21        1.0     0.055042     0.914055     0.960328    Uiso  ? N
   N22        1.0     0.694959     0.789670     0.835947    Uiso  ? N
   N23        1.0     0.835947     0.694959     0.789670    Uiso  ? N
   N24        1.0     0.789669     0.835948     0.694958    Uiso  ? N
