LAMMPS (22 Dec 2022)
Loaded 1 plugins from C:\Program Files\LAMMPS 64-bit 23Jun2022\plugins
Loaded 0 plugins from C:\Program Files\LAMMPS 64-bit 23Jun2022-MPI\plugins
Loaded 1 plugins from C:\Program Files\LAMMPS 64-bit 22Dec2022-MSMPI\plugins
Loaded 1 plugins from C:\Program Files\LAMMPS 64-bit 28Mar2023-MPI\plugins
# ----- Structure settings -----
units      metal
atom_style atomic
dimension  3
boundary   p p p
#read_data  ZTC_SG213.data # read initial data case
read_data  ZTC_SG213_C6site.data
Reading data file ...
  orthogonal box = (0 0 0) to (24.07 24.07 24.07)
  reading atoms ...
  360 atoms

#mass 1 12.0107 # C
#mass 2 14.0067 # N
#mass 2 10.81   # B
#mass 3 1.00794 # H

# ----- Potential settings -----
#pair_style airebo 3.0 1 0
#pair_coeff * * CH.airebo C H
#
# N substitution
#pair_style hybrid airebo 3.0 1 0 lj/cut 10.2 tersoff
#pair_coeff * * tersoff BNC.tersoff C N    NULL
#pair_coeff * * airebo  CH.airebo   C NULL H
#pair_coeff 2 3 lj/cut 0.002389 2.915  #   N-H
#
# B substitution
pair_style hybrid airebo 3.0 1 0 lj/cut 10.2 tersoff
pair_coeff * * tersoff BNC.tersoff C B    NULL
Reading tersoff potential file BNC.tersoff with DATE: 2013-03-21
pair_coeff * * airebo  CH.airebo   C NULL H
Reading airebo potential file CH.airebo with DATE: 2011-10-25
pair_coeff 2 3 lj/cut 0.003859 3.1035 #   B-H

# ----- Output setting -----
thermo          100
thermo_style    custom step etotal temp lx vol press

# ----- Relax calculation (0 K) -----
fix             f1 all box/relax iso 0.0
minimize        1.0e-10 0.0 10000 100000
Step         TotEng          Temp            Lx           Volume         Press
0  -2283.2524      0              24.07          13945.313      5553.7387
Averages over the last 10 of 20 rows, steps 1000 to 1878:
TotEng Temp Lx Volume Press
-2311.84 0 23.9624 13759.7 -18.0963
Loop time of 4.32711 on 1 procs for 1878 steps with 360 atoms

Minimization stats:
  Stopping criterion = energy tolerance
  Energy initial, next-to-last, final =
  Force two-norm initial, final = 158.12468 0.067771644
  Force max component initial, final = 145.0189 0.044776419
  Final line search alpha, max atom move = 0.0017222872 7.7117856e-05
  Iterations, force evaluations = 1878 2178

unfix           f1

# ----- Output setting -----
dump            d1 all cfg 1 cfg/run.*.cfg mass type xs ys zs id type
dump_modify     d1 element C B H

# ----- Run calculation -----
run 0
Step         TotEng          Temp            Lx           Volume         Press
1878  -2312.6578      0              23.809744      13497.837     -1.7524794
Loop time of 1e-06 on 1 procs for 0 steps with 360 atoms

# ----- Ende -----
